version 2
run Debugging_quick-0-20211221-22:48:33-11665
attr configname Debugging_quick
attr datetime 20211221-22:48:33
attr experiment Debugging_quick
attr inifile omnetpp.ini
attr iterationvars ""
attr iterationvarsf ""
attr measurement ""
attr network Network
attr processid 11665
attr repetition 0
attr replication #0
attr resultdir results
attr runnumber 0
attr seedset 0
param **.percentage_quick_tills 0.6
param **.quick_checkout_threshold 3
param **.number_of_tills 10
param *.externalWorld.arrival_mean 15
param *.externalWorld.service_distribution 0
param *.externalWorld.service_mean 5
param *.externalWorld.service_std_deviation 1
param **.logging true
param **.quick_tills[*].is_quick true
param **.standard_tills[*].is_quick false

vector 0 Network.supermarket.quick_tills[0] number_of_jobs_stat:vector ETV
attr source number_of_jobs
vector 1 Network.supermarket.quick_tills[0] response_time_stat:vector ETV
attr source response_time
vector 2 Network.supermarket.standard_tills[0] number_of_jobs_stat:vector ETV
attr source number_of_jobs
vector 3 Network.supermarket.standard_tills[1] number_of_jobs_stat:vector ETV
attr source number_of_jobs
vector 4 Network.supermarket.standard_tills[1] response_time_stat:vector ETV
attr source response_time
vector 5 Network.supermarket.standard_tills[0] response_time_stat:vector ETV
attr source response_time
vector 6 Network.supermarket.quick_tills[1] number_of_jobs_stat:vector ETV
attr source number_of_jobs
vector 7 Network.supermarket.quick_tills[1] response_time_stat:vector ETV
attr source response_time
vector 8 Network.supermarket.standard_tills[2] number_of_jobs_stat:vector ETV
attr source number_of_jobs
vector 9 Network.supermarket.standard_tills[2] response_time_stat:vector ETV
attr source response_time
vector 10 Network.supermarket.standard_tills[3] number_of_jobs_stat:vector ETV
attr source number_of_jobs
vector 11 Network.supermarket.standard_tills[3] response_time_stat:vector ETV
attr source response_time
vector 12 Network.supermarket.quick_tills[2] number_of_jobs_stat:vector ETV
attr source number_of_jobs
vector 13 Network.supermarket.quick_tills[2] response_time_stat:vector ETV
attr source response_time
0	3	11.938117568487	1
0	4	14.636146701046	0
0	19	85.997894919639	1
0	20	85.998466857752	0
0	23	115.271074957906	1
0	24	115.956617860872	0
0	27	127.079092057635	1
0	28	128.879155796914	0
0	34	163.529280170731	1
0	35	164.322828156862	0
0	38	178.184376566631	1
0	39	179.530896355012	0
0	43	193.756766076589	1
0	44	194.241185439102	0
0	47	201.033688532414	1
0	48	203.559403585786	0
0	51	209.666476485659	1
0	52	210.697049655478	0
0	55	214.963863572722	1
0	56	217.418249361654	0
0	59	248.316729903267	1
0	63	250.436612297303	0
0	67	298.916184138587	1
0	68	301.443446800945	0
0	83	344.220694813549	1
0	84	346.937391706678	0
0	87	369.303862818423	1
0	88	371.182958781712	0
0	99	402.993705819936	1
0	100	404.137327852901	0
0	103	410.476785955174	1
0	104	413.406803277728	0
0	111	476.576136207032	1
0	116	477.880215456726	0
0	130	501.198073325118	1
0	131	503.898528574061	0
0	143	582.151659265665	1
0	144	584.968385422374	0
0	147	604.738423145226	1
0	148	605.494787733585	0
0	155	637.611599819329	1
0	156	638.715465903752	0
0	179	793.101515059018	1
0	180	794.981708171091	0
0	183	804.125981376865	1
0	184	804.612947572489	0
0	210	895.656878035668	1
0	211	896.101275678624	0
0	219	950.635705082484	1
0	220	950.834894478261	0
0	223	971.95617528389	1
0	224	973.550663026299	0
0	227	983.023584660229	1
0	228	983.954211105021	0
0	231	984.702777069719	1
0	232	985.008130160535	0
0	242	1006.970888685892	1
0	243	1007.48851544667	0
0	251	1032.387760302624	1
0	252	1035.120953763059	0
0	262	1065.214076780777	1
0	263	1067.867415011083	0
0	270	1079.998267774343	1
0	274	1081.098701997923	0
0	278	1086.15935847251	1
0	280	1087.869202554875	0
0	283	1100.580072558496	1
0	284	1102.475519930523	0
0	287	1103.012119900185	1
0	288	1103.77857592197	0
0	302	1142.710274439075	1
0	304	1145.370000211352	0
0	307	1185.87899975824	1
0	308	1185.971287648237	0
0	311	1220.812700371453	1
0	312	1220.986544371763	0
0	335	1311.394424048982	1
0	336	1313.167062435846	0
0	339	1329.336041040838	1
0	343	1330.981645606146	0
0	351	1384.339394051281	1
0	352	1385.595338328941	0
0	355	1400.823081064545	1
0	356	1401.367838130003	0
0	359	1416.705593036859	1
0	360	1417.086566252152	0
0	363	1433.364554722167	1
0	367	1436.334626527089	0
0	374	1446.370106732985	1
0	375	1446.875689176436	0
0	378	1448.440537059412	1
0	379	1450.17850531698	0
0	386	1474.960606870517	1
0	387	1476.6574163101	0
0	391	1489.001530267088	1
0	392	1489.637802927005	0
0	395	1495.783061170457	1
0	396	1496.479535700278	0
0	403	1514.346166432933	1
0	404	1514.443951208212	0
0	407	1514.933913779129	1
0	408	1515.370550942743	0
0	419	1605.499296211366	1
0	420	1606.688223012358	0
0	426	1655.008022464511	1
0	427	1656.551166506217	0
0	431	1670.875418664795	1
0	432	1672.651157153486	0
0	442	1692.148933309115	1
0	443	1692.423128777737	0
0	458	1805.891525092569	1
0	460	1806.684912984361	0
0	471	1832.993333987723	1
0	472	1834.505478570083	0
0	479	1851.850450225968	1
0	480	1853.163872043863	0
0	483	1854.44736206816	1
0	484	1854.987150553244	0
0	490	1862.389211663884	1
0	492	1865.061866830805	0
0	506	1903.211840833522	1
0	508	1905.88554808962	0
0	514	1929.094579780219	1
0	515	1929.350801304634	0
0	527	1997.096678237277	1
0	528	1997.328708336172	0
0	534	2023.106621779489	1
0	535	2023.860539256722	0
0	551	2083.359823290283	1
0	552	2083.511095515516	0
0	571	2235.77951085667	1
0	572	2236.518964858022	0
0	575	2246.468264756668	1
0	576	2249.439121421095	0
0	579	2302.897174024227	1
0	580	2303.647082936223	0
0	591	2326.68345867372	1
0	592	2329.054194444107	0
0	595	2346.847137756005	1
0	603	2349.381943540778	0
0	615	2419.852515454212	1
0	619	2422.093812431447	0
0	639	2462.955926913462	1
0	640	2463.631103132198	0
0	661	2550.802334227505	1
0	663	2552.986641699926	0
0	667	2568.490177133483	1
0	668	2570.635624568938	0
0	675	2593.52429285403	1
0	676	2595.097352724298	0
0	679	2623.572900691638	1
0	680	2625.77731339787	0
0	691	2649.979226608068	1
0	692	2652.773105227543	0
0	703	2726.847284208376	1
0	704	2726.905973276967	0
0	719	2785.636221222663	1
0	720	2786.019503519754	0
0	723	2791.389624434142	1
0	727	2791.999027611558	0
0	735	2835.753239110494	1
0	736	2836.084297788472	0
0	739	2837.873199813905	1
0	740	2840.861586092037	0
0	743	2853.499909626597	1
0	744	2855.694840933065	0
0	754	2905.142966355929	1
0	755	2907.765365150168	0
0	758	2909.755732212365	1
0	759	2912.144325098724	0
0	762	2912.790988790874	1
0	763	2914.143651808083	0
0	781	2948.726357927839	1
0	783	2950.51945996426	0
0	787	2975.212474014035	1
0	788	2975.226846274275	0
0	797	2984.584158155545	1
0	798	2985.414016823097	0
0	803	3001.573670285132	1
0	804	3003.55108255608	0
0	815	3037.188370481726	1
0	816	3037.233614545626	0
0	827	3111.35208732723	1
0	828	3113.562238211814	0
0	851	3179.21624503451	1
0	852	3179.295983697602	0
0	855	3213.172248672423	1
0	856	3214.738964948399	0
0	878	3341.177689472909	1
0	879	3341.540981100091	0
0	882	3350.067049884692	1
0	883	3351.012817154305	0
0	891	3387.114638997492	1
0	892	3387.852128498941	0
0	902	3464.646215965277	1
0	903	3465.711910268488	0
0	915	3517.007629411041	1
0	916	3517.349024543966	0
0	919	3524.968466860289	1
0	920	3526.277647107193	0
0	934	3585.676626411335	1
0	935	3586.846184939756	0
0	942	3604.370746442334	1
0	943	3604.623552390007	0
0	955	3704.549503992519	1
0	956	3705.212996760566	0
0	959	3717.86742514907	1
0	960	3718.812816954245	0
0	963	3737.24606418108	1
0	964	3737.346466183899	0
0	967	3753.413587443127	1
0	968	3755.937086966963	0
0	971	3763.850579356634	1
0	972	3763.983382447383	0
0	975	3775.278595926073	1
0	976	3775.846485234462	0
0	979	3822.160621290946	1
0	980	3822.304195502252	0
0	987	3841.583435075758	1
0	988	3842.996649494138	0
0	991	3849.118097049672	1
0	992	3849.656776124232	0
0	999	3871.855840384094	1
0	1000	3873.559270724396	0
0	1007	3895.503454215032	1
0	1011	3896.821709687714	0
0	1023	3929.590627666719	1
0	1024	3931.221486906383	0
0	1027	3945.780430646553	1
0	1028	3946.443365937537	0
0	1031	3950.875401635288	1
0	1032	3952.205803869856	0
0	1035	3956.014396005759	1
0	1036	3957.651250667493	0
0	1039	3963.2689313046	1
0	1040	3963.749043893756	0
0	1055	4038.460375364583	1
0	1059	4041.166168446145	0
0	1062	4042.272191518724	1
0	1063	4044.565280910759	0
0	1067	4047.585553502405	1
0	1068	4047.679670216509	0
0	1078	4068.25314211653	1
0	1080	4069.963903817996	0
0	1083	4081.659078291113	1
0	1084	4082.985252972648	0
0	1099	4122.906746168225	1
0	1100	4125.360722763347	0
0	1103	4174.994778357462	1
0	1104	4177.778339351732	0
0	1118	4208.859853811072	1
0	1119	4211.65129771307	0
0	1126	4245.173768080276	1
0	1128	4247.970193376594	0
0	1131	4252.046361339649	1
0	1132	4252.779909001206	0
0	1135	4253.581170562437	1
0	1136	4255.827506768543	0
0	1139	4262.168093833862	1
0	1140	4262.477033078474	0
0	1143	4324.235240241518	1
0	1144	4325.067511697124	0
0	1147	4357.608960099898	1
0	1148	4358.255766034836	0
0	1155	4386.74591246715	1
0	1156	4386.973786504423	0
0	1163	4416.552357790406	1
0	1164	4417.120968694355	0
0	1170	4427.047649919695	1
0	1171	4428.326689641974	0
0	1183	4472.925294244107	1
0	1184	4473.108611239091	0
0	1195	4602.697204182678	1
0	1196	4602.760381554842	0
0	1199	4630.29319595884	1
0	1200	4630.988182406436	0
0	1203	4632.721247259524	1
0	1204	4633.094726431455	0
0	1207	4667.973906605785	1
0	1208	4669.717153296434	0
0	1214	4698.936782555606	1
0	1215	4701.174587396134	0
0	1222	4712.245435091143	1
0	1223	4713.850906591165	0
0	1227	4726.584931449979	1
0	1228	4727.721274445006	0
0	1231	4729.323010478218	1
0	1232	4729.70724830488	0
0	1235	4731.305766122438	1
0	1236	4732.759705552923	0
0	1239	4753.953117956579	1
0	1240	4754.778299948283	0
0	1247	4812.241848688259	1
0	1248	4813.123259022199	0
0	1251	4836.942635208162	1
0	1252	4838.02986850652	0
0	1262	4859.7827579591	1
0	1264	4862.101942534827	0
0	1270	4868.132610193705	1
0	1271	4868.389171847961	0
0	1283	4947.887022034701	1
0	1284	4949.258204807202	0
0	1287	4954.89611053085	1
0	1288	4956.670067289126	0
0	1295	4972.133453530734	1
0	1296	4973.276484026317	0
0	1315	5084.781832464186	1
0	1319	5085.634536942056	0
0	1323	5114.082007516437	1
0	1324	5114.175762031498	0
0	1330	5118.193695632705	1
0	1331	5118.556668156472	0
0	1335	5139.910606862532	1
0	1336	5140.113068679381	0
0	1363	5250.393000460487	1
0	1364	5252.301956302356	0
0	1374	5267.527642846409	1
0	1375	5268.106583339235	0
0	1381	5273.842173579807	1
0	1385	5274.631485716837	0
0	1399	5309.950540895427	1
0	1400	5311.165042299099	0
0	1419	5433.999896163905	1
0	1420	5435.538772870294	0
0	1423	5448.056976929756	1
0	1424	5448.766334589032	0
0	1427	5466.338928979907	1
0	1428	5466.682115971278	0
0	1434	5480.443741459454	1
0	1435	5482.754587067586	0
0	1439	5503.406209853464	1
0	1440	5504.6021533917	0
0	1447	5516.503566519805	1
0	1448	5516.889367368861	0
0	1451	5531.075798891229	1
0	1455	5532.25551202338	0
0	1463	5562.779460626501	1
0	1464	5563.664372870089	0
0	1467	5566.854481681636	1
0	1468	5567.198748672117	0
0	1471	5640.041475001539	1
0	1472	5642.245359077363	0
0	1475	5680.861698840233	1
0	1476	5682.369353825543	0
0	1479	5685.52621591478	1
0	1480	5686.027018497201	0
0	1487	5716.85260895677	1
0	1488	5717.625730456366	0
0	1491	5728.358803775355	1
0	1492	5729.433653264501	0
0	1523	5887.593988556056	1
0	1524	5889.121839291628	0
0	1527	5891.175281648774	1
0	1528	5893.13692179466	0
0	1531	5894.708150250052	1
0	1532	5895.049336153834	0
0	1558	5990.461711012046	1
0	1559	5991.365761187391	0
0	1570	6057.162751223739	1
0	1571	6057.233000265938	0
0	1575	6074.27981976663	1
0	1576	6077.062517273297	0
0	1579	6078.682434545479	1
0	1580	6080.017664137945	0
0	1598	6100.372718105825	1
0	1599	6102.906979719325	0
0	1615	6211.986107201916	1
0	1616	6213.123812719602	0
0	1623	6233.523945130478	1
0	1624	6233.564119652095	0
0	1634	6248.597922273314	1
0	1635	6251.069467145088	0
0	1639	6277.523324326512	1
0	1643	6279.267648698467	0
0	1647	6298.9965652572	1
0	1648	6299.90988288877	0
0	1655	6325.828103819074	1
0	1656	6325.95008792991	0
0	1679	6430.260506576415	1
0	1680	6432.557818328734	0
0	1683	6499.855294472021	1
0	1684	6502.36690069874	0
0	1694	6522.164103799635	1
0	1695	6522.341450756579	0
0	1699	6538.48267030385	1
0	1700	6539.438204470733	0
0	1703	6574.016442866405	1
0	1704	6576.205691493406	0
0	1707	6578.60051639362	1
0	1708	6579.275776394343	0
0	1711	6580.814456886989	1
0	1715	6581.223327750645	0
0	1727	6638.34193748525	1
0	1728	6638.405908303637	0
0	1731	6644.127252895928	1
0	1732	6644.236052124421	0
0	1750	6721.36836061212	1
0	1751	6723.402079392275	0
0	1755	6748.04051066463	1
0	1756	6748.1161751987	0
0	1763	6773.913590155608	1
0	1768	6774.882704943169	0
0	1771	6804.826739047248	1
0	1772	6806.844550440788	0
0	1779	6815.226808277588	1
0	1780	6815.92885088759	0
0	1794	6883.101834085064	1
0	1796	6885.215424436931	0
0	1799	6900.187698845157	1
0	1800	6901.840485028505	0
0	1806	6955.121138079691	1
0	1807	6957.310444441866	0
0	1823	7009.43610499952	1
0	1824	7010.818095788336	0
0	1830	7057.512911101516	1
0	1831	7057.633780813363	0
0	1846	7119.08244295525	1
0	1847	7121.892755944712	0
0	1855	7170.037728868028	1
0	1856	7172.163174736185	0
0	1866	7190.953939108404	1
0	1867	7192.6363322716	0
0	1871	7209.604200777633	1
0	1872	7210.280586259617	0
0	1887	7243.552356754079	1
0	1888	7245.433909301111	0
0	1891	7250.582503893733	1
0	1892	7250.660779789457	0
0	1901	7279.141822760495	1
0	1903	7280.373840375349	0
0	1907	7284.020063030139	1
0	1908	7286.863010784503	0
0	1911	7287.115432934213	1
0	1912	7288.545185462486	0
0	1923	7355.003948391277	1
0	1924	7356.897417821059	0
0	1927	7375.624147698305	1
0	1928	7376.965299001066	0
0	1946	7412.267018905617	1
0	1947	7413.283786058725	0
0	1951	7415.15094051825	1
0	1952	7416.212331178002	0
0	1967	7469.257873583269	1
0	1968	7469.50454331911	0
0	1971	7481.758547192958	1
0	1972	7482.03563124402	0
0	1975	7509.287498237051	1
0	1976	7509.367499760354	0
0	1979	7512.324379692522	1
0	1980	7515.049685508587	0
0	1983	7515.763044570627	1
0	1984	7516.017990300567	0
0	1990	7520.814295620067	1
0	1991	7523.363553539719	0
0	2002	7539.449344689464	1
0	2003	7539.451355209051	0
0	2019	7623.172465245193	1
0	2020	7625.535141936233	0
0	2023	7643.787610461499	1
0	2024	7645.257471178065	0
0	2030	7665.959572072007	1
0	2031	7666.38875009594	0
0	2038	7704.744922871503	1
0	2039	7705.603350452219	0
0	2047	7726.801298612647	1
0	2048	7727.976701695108	0
0	2055	7758.586568927107	1
0	2056	7761.287693431652	0
0	2062	7772.460111262548	1
0	2063	7774.596288238639	0
0	2067	7821.487557274892	1
0	2068	7823.168952491571	0
0	2087	7856.359205735442	1
0	2088	7856.747521194386	0
0	2094	7858.921206318812	1
0	2095	7859.106963048813	0
0	2119	7954.740426547459	1
0	2120	7954.763797647324	0
0	2123	7977.807857264607	1
0	2124	7979.755921872659	0
0	2127	8040.147423698054	1
0	2128	8041.68143083272	0
0	2139	8076.589637190431	1
0	2140	8079.586773375685	0
0	2143	8079.596270116717	1
0	2147	8081.826269852011	0
0	2151	8091.361347478739	1
0	2152	8092.734963705804	0
0	2155	8101.333463722012	1
0	2156	8103.978508037485	0
0	2159	8114.361949693999	1
0	2160	8114.479156415638	0
0	2163	8171.272306440315	1
0	2164	8173.83877966646	0
0	2171	8225.880830216989	1
0	2172	8227.789943873358	0
0	2175	8239.870008046022	1
0	2176	8240.56743757701	0
0	2187	8298.641008037887	1
0	2188	8301.453772193925	0
0	2191	8307.750197367179	1
0	2192	8308.66879482708	0
0	2199	8343.367185675449	1
0	2200	8346.100095291134	0
0	2211	8440.816828738995	1
0	2212	8441.923616276753	0
0	2215	8459.675383672554	1
0	2216	8461.275723573135	0
0	2219	8483.757265118572	1
0	2220	8486.539004638571	0
0	2223	8493.744902418127	1
0	2224	8493.795152720448	0
0	2227	8508.676857068627	1
0	2228	8510.779849069742	0
0	2231	8527.170064014088	1
0	2232	8528.411513820817	0
0	2239	8568.618004028309	1
0	2240	8568.780393851012	0
0	2266	8670.227441761256	1
0	2267	8671.802422162721	0
0	2271	8725.12230172273	1
0	2272	8725.20530063096	0
0	2275	8731.520338903277	1
0	2276	8732.974552234205	0
0	2279	8761.261572472328	1
0	2280	8763.03638469907	0
0	2303	8940.326849643628	1
0	2304	8941.350386764902	0
0	2310	8950.706846640359	1
0	2311	8951.143065551702	0
0	2318	8970.719621430631	1
0	2319	8970.946032612175	0
0	2327	8985.543499621795	1
0	2331	8988.47670807472	0
0	2335	8996.136990231355	1
0	2336	8996.234529217947	0
0	2343	9027.340439556434	1
0	2344	9027.687361712154	0
0	2355	9048.929838288846	1
0	2359	9051.027827633421	0
0	2362	9054.668712523242	1
0	2363	9055.021948062553	0
0	2370	9115.427736992416	1
0	2371	9117.80120344817	0
0	2379	9152.97227442532	1
0	2380	9153.387150720969	0
0	2383	9165.60431896788	1
0	2384	9166.964746733421	0
0	2390	9226.053333513372	1
0	2391	9226.280506709798	0
0	2395	9274.652778016885	1
0	2396	9275.654876884072	0
0	2399	9297.982193422203	1
0	2400	9299.633171541739	0
0	2414	9370.476117226684	1
0	2415	9370.855790947991	0
0	2431	9390.861823922882	1
0	2432	9391.899273599632	0
0	2435	9398.706338727718	1
0	2436	9399.583891365051	0
0	2450	9466.290337858344	1
0	2451	9468.407251605946	0
0	2457	9473.01648461345	1
0	2458	9474.291203633392	0
0	2473	9538.619696802257	1
0	2474	9540.491490422895	0
0	2479	9550.05605206548	1
0	2480	9550.805982505717	0
0	2498	9613.380461475232	1
0	2499	9614.866553791637	0
0	2503	9617.708152130454	1
0	2504	9618.942023119868	0
0	2507	9619.116270339693	1
0	2508	9619.703949249156	0
0	2511	9636.08695185376	1
0	2512	9638.99344553696	0
0	2515	9652.810263182365	1
0	2516	9653.882190344914	0
0	2527	9690.466028354066	1
0	2528	9692.492986198692	0
0	2535	9719.573930444523	1
0	2536	9719.618693621966	0
0	2539	9731.799205407967	1
0	2540	9732.96640251387	0
0	2547	9787.894366240002	1
0	2548	9789.319684153006	0
0	2558	9816.041240772162	1
0	2559	9816.32652339278	0
0	2562	9820.768641202899	1
0	2563	9823.456617668867	0
0	2567	9825.20716930162	1
0	2568	9826.064549979156	0
0	2578	9841.621123630157	1
0	2579	9842.951810393912	0
0	2583	9851.328744190803	1
0	2584	9853.251352438512	0
0	2587	9856.713163966453	1
0	2588	9857.250907722756	0
0	2607	9900.803581485058	1
0	2608	9902.029883276725	0
0	2611	9918.049702301305	1
0	2612	9918.878037283061	0
0	2615	9926.801058866835	1
0	2616	9927.918083014422	0
0	2631	9986.889743833266	1
0	2632	9987.73904247479	0
0	2642	10023.362066390096	1
0	2644	10024.142678480014	0
0	2654	10058.703428566175	1
0	2655	10059.484896225366	0
0	2658	10059.581347050373	1
0	2659	10060.836806640536	0
0	2663	10075.765250677867	1
0	2664	10076.012777840509	0
0	2683	10170.492962709341	1
0	2684	10170.605880335926	0
0	2687	10187.648322018141	1
0	2688	10189.506016628589	0
0	2691	10192.153198222426	1
0	2692	10194.113690890931	0
0	2695	10195.100126510879	1
0	2696	10197.59576694385	0
0	2702	10203.208009961121	1
0	2703	10203.6291792215	0
0	2710	10216.640450791677	1
0	2711	10218.81070983777	0
0	2719	10254.810468351491	1
0	2720	10254.815537319529	0
0	2735	10289.859060517085	1
0	2736	10290.976474847368	0
0	2751	10357.507551913136	1
0	2752	10359.446550965352	0
0	2755	10381.633819649424	1
0	2756	10382.153646001555	0
0	2759	10391.758084254222	1
0	2760	10392.000456026612	0
0	2783	10461.13817211032	1
0	2784	10463.745114020939	0
0	2795	10530.166382197827	1
0	2796	10530.342296930748	0
0	2815	10581.770895395726	1
0	2816	10583.582050201123	0
0	2819	10590.213273422983	1
0	2820	10591.716761414187	0
0	2823	10602.406748840766	1
0	2824	10604.289354480358	0
0	2827	10613.107513082779	1
0	2828	10614.593275617028	0
0	2831	10615.720440488393	1
0	2832	10617.004340406128	0
0	2843	10646.73045508576	1
0	2844	10648.848326521115	0
0	2858	10681.02428888893	1
0	2860	10683.97856178948	0
0	2870	10696.800717713176	1
0	2871	10697.034400211885	0
0	2878	10746.40614080512	1
0	2879	10749.359991911278	0
0	2882	10749.513918538888	1
0	2883	10751.299067412192	0
0	2891	10786.741319811624	1
0	2892	10787.512940643982	0
0	2895	10799.715391453063	1
0	2896	10801.943393021364	0
0	2911	10858.307397964143	1
0	2912	10860.957052900357	0
0	2927	10925.042021370029	1
0	2928	10926.176887268261	0
0	2955	11045.98270897499	1
0	2956	11046.710311874501	0
0	2963	11073.638018911388	1
0	2964	11075.836013151915	0
0	2970	11092.613782891964	1
0	2971	11092.746624904372	0
0	2979	11132.715150394411	1
0	2983	11133.589270157263	0
0	2994	11172.12310364867	1
0	2995	11172.277460382386	0
0	2999	11193.971506822306	1
0	3000	11195.85696316248	0
0	3003	11196.596432545579	1
0	3007	11198.879249104704	0
0	3035	11311.197543455152	1
0	3036	11312.24274084719	0
0	3043	11386.543325474632	1
0	3044	11389.459449409326	0
0	3054	11409.48774574844	1
0	3055	11411.060486465555	0
0	3067	11482.438574239539	1
0	3068	11483.578765707081	0
0	3071	11512.257666062199	1
0	3072	11513.871421379917	0
0	3075	11538.043705739026	1
0	3076	11539.467024908492	0
0	3079	11540.616785149618	1
0	3080	11541.893766232237	0
0	3083	11576.544481990459	1
0	3084	11578.064712021534	0
0	3100	11680.576148252216	1
0	3101	11681.694834147057	0
0	3107	11695.445340838606	1
0	3108	11695.738411677143	0
0	3122	11763.827580509312	1
0	3123	11765.018613683841	0
0	3135	11822.408425493294	1
0	3136	11824.212351826792	0
0	3139	11826.89835122957	1
0	3140	11828.66270065295	0
0	3147	11874.77184995794	1
0	3148	11874.911821067454	0
0	3151	11895.10762766569	1
0	3155	11896.246362874577	0
0	3159	11901.116282801237	1
0	3160	11901.580239001627	0
0	3166	11950.936314498429	1
0	3167	11951.842063557482	0
0	3170	11957.522469282246	1
0	3172	11959.920849563721	0
0	3199	12023.103274771939	1
0	3200	12024.342531787289	0
0	3215	12099.166125397476	1
0	3216	12100.656827539826	0
0	3219	12100.740116607402	1
0	3220	12100.90440158778	0
0	3230	12159.976502999813	1
0	3231	12160.686796284274	0
0	3238	12191.969034994308	1
0	3240	12194.295808645017	0
0	3246	12201.914435471167	1
0	3247	12202.346886462379	0
0	3250	12207.847919477095	1
0	3251	12209.099418921952	0
0	3258	12213.17955559388	1
0	3259	12214.733094742746	0
0	3267	12231.53725952893	1
0	3268	12231.962184694487	0
0	3274	12259.484900680612	1
0	3276	12262.283394403457	0
0	3279	12270.568700979699	1
0	3284	12272.810105113059	0
0	3295	12305.739569390518	1
0	3296	12305.974039678767	0
0	3303	12318.595484994301	1
0	3304	12321.049193221503	0
0	3322	12344.591027370986	1
0	3323	12346.687231028992	0
0	3333	12375.894017813645	1
0	3337	12377.51855293495	0
0	3358	12466.672701139708	1
0	3359	12466.729423252939	0
0	3363	12521.566132916634	1
0	3364	12522.340188522509	0
0	3371	12598.204152764973	1
0	3372	12598.612301638714	0
0	3379	12606.795638227407	1
0	3380	12606.888152047597	0
0	3386	12615.031215407268	1
0	3387	12615.376492238512	0
0	3403	12691.805402282142	1
0	3404	12692.406881560813	0
0	3407	12707.131177493285	1
0	3408	12709.370568321727	0
0	3411	12775.348535271183	1
0	3412	12775.48941827298	0
0	3427	12811.80697874411	1
0	3428	12814.318377284803	0
0	3431	12836.086894740404	1
0	3432	12838.534951206099	0
0	3450	12879.98379434714	1
0	3451	12882.973768005846	0
0	3471	12962.160187481133	1
0	3472	12962.611214631186	0
0	3482	13010.21896146122	1
0	3483	13012.793067069564	0
0	3498	13046.131458828327	1
0	3499	13046.320285117784	0
0	3511	13110.564376006764	1
0	3512	13110.755107746904	0
0	3515	13118.602857936857	1
0	3516	13119.274181253646	0
0	3531	13212.720804835729	1
0	3532	13212.772896542561	0
0	3543	13265.937627204042	1
0	3544	13266.49905654809	0
0	3547	13266.644116269874	1
0	3548	13266.659228893587	0
0	3551	13286.774412387613	1
0	3552	13288.421690481948	0
0	3587	13500.223629311955	1
0	3588	13501.010163946918	0
0	3591	13518.140978464574	1
0	3592	13518.545829719168	0
0	3595	13553.440999985672	1
0	3596	13554.299273629909	0
0	3603	13592.823118267436	1
0	3604	13593.862125431986	0
0	3647	13780.486823205748	1
0	3648	13782.023182142244	0
0	3657	13806.243071789278	1
0	3658	13808.804486293784	0
0	3667	13863.206984270754	1
0	3668	13864.644399252263	0
0	3675	13897.039991132808	1
0	3676	13897.992345502133	0
0	3683	13916.770293173173	1
0	3684	13917.406376028225	0
0	3698	13940.120682381525	1
0	3699	13940.914444126286	0
0	3707	13966.724987923586	1
0	3708	13968.259635044606	0
0	3722	14014.534085207936	1
0	3724	14016.393660883011	0
0	3727	14025.049767847826	1
0	3728	14026.703291875654	0
0	3737	14044.714018426875	1
0	3738	14046.264602402359	0
0	3755	14115.272322991487	1
0	3756	14117.160116236577	0
0	3767	14158.012309300556	1
0	3768	14158.675853900354	0
0	3771	14200.873689517797	1
0	3772	14203.156612996319	0
0	3779	14219.326061654313	1
0	3780	14222.168267631206	0
0	3783	14231.254394673945	1
0	3784	14231.483758884156	0
0	3791	14272.546542302413	1
0	3792	14273.844314641619	0
0	3803	14342.074273392683	1
0	3804	14342.23146359778	0
0	3807	14342.448194828598	1
0	3808	14344.271526019151	0
0	3827	14494.415692431882	1
0	3828	14494.554024608953	0
0	3831	14512.876475197346	1
0	3832	14513.653565880509	0
0	3839	14540.413993033907	1
0	3843	14542.238956235276	0
0	3871	14614.971604175867	1
0	3872	14616.525249304387	0
0	3891	14646.932025732463	1
0	3892	14648.645159406277	0
0	3895	14695.311766988212	1
0	3896	14697.339887073482	0
0	3899	14729.173918849558	1
0	3900	14729.220881600932	0
0	3910	14782.12848626846	1
0	3911	14783.272301866404	0
0	3915	14794.00262268751	1
0	3916	14795.868417369644	0
0	3939	14911.604071061827	1
0	3940	14914.383837968439	0
0	3943	14915.245252622222	1
0	3944	14916.128567999942	0
0	3947	14923.076922188386	1
0	3948	14924.498002852898	0
0	3954	14948.133354049665	1
0	3955	14950.453809879792	0
0	3959	15003.924478713156	1
0	3960	15004.230926141872	0
0	3982	15083.307184729788	1
0	3983	15085.688073122101	0
0	3995	15131.009659076342	1
0	3996	15132.302866987301	0
0	3999	15149.505989984599	1
0	4000	15150.189712748123	0
0	4003	15155.080226307017	1
0	4004	15155.537964807711	0
0	4007	15159.96147706445	1
0	4008	15162.571776811558	0
0	4011	15166.964442217899	1
0	4012	15168.253827229065	0
0	4015	15200.751835268968	1
0	4016	15202.955302962507	0
0	4019	15211.917509189934	1
0	4024	15213.80464325474	0
0	4027	15233.150877590594	1
0	4028	15234.111318321971	0
0	4039	15259.971626976594	1
0	4040	15260.509595595412	0
0	4043	15298.658323938384	1
0	4044	15301.326973729023	0
0	4054	15382.393624272561	1
0	4058	15383.306115045523	0
0	4063	15417.905249247438	1
0	4064	15420.799027019133	0
0	4070	15428.299231237198	1
0	4072	15429.1734772913	0
0	4075	15437.161759543267	1
0	4076	15438.536283914915	0
0	4091	15489.026540458992	1
0	4092	15491.172673370427	0
0	4095	15499.746053269661	1
0	4096	15502.29313134351	0
0	4099	15519.957785625024	1
0	4100	15520.25104186582	0
0	4103	15527.294411784325	1
0	4104	15528.905573628784	0
0	4107	15544.410061798125	1
0	4108	15545.709188124279	0
0	4111	15555.738239064532	1
0	4112	15556.003351085111	0
0	4119	15613.773182192047	1
0	4120	15614.51982908125	0
0	4135	15686.26986671704	1
0	4136	15687.250265695718	0
0	4139	15692.541241601194	1
0	4140	15693.501405271388	0
0	4158	15773.149535822459	1
0	4159	15773.719097792683	0
0	4175	15821.409780388459	1
0	4179	15822.257749857347	0
0	4182	15836.990510090892	1
0	4183	15838.804052965219	0
0	4203	15877.280626347022	1
0	4204	15877.445444883272	0
0	4211	15888.995618180073	1
0	4212	15889.486864694903	0
0	4215	15901.244508512792	1
0	4216	15902.319520981425	0
0	4219	15939.531655916004	1
0	4220	15939.869687851652	0
0	4223	15946.252975441635	1
0	4224	15946.607400853308	0
0	4234	15965.949704320029	1
0	4235	15968.303202338107	0
0	4238	15968.451640691866	1
0	4243	15970.378842270104	0
0	4250	15983.427062306167	1
0	4251	15984.346576074754	0
0	4261	16033.651724698243	1
0	4263	16036.339216660663	0
0	4271	16090.600787999787	1
0	4272	16091.690893730989	0
0	4279	16111.742928049271	1
0	4280	16112.650708177585	0
0	4294	16133.201391640978	1
0	4295	16133.491092898196	0
0	4303	16162.644080864314	1
0	4304	16164.635680528297	0
0	4307	16179.3632459093	1
0	4308	16179.429362908261	0
0	4315	16243.279724588176	1
0	4316	16245.456816527681	0
0	4326	16254.570721347629	1
0	4327	16255.74510971133	0
0	4343	16346.735677299846	1
0	4344	16349.632877871133	0
0	4355	16436.343437148578	1
0	4356	16437.083981301276	0
0	4359	16473.283101189666	1
0	4364	16475.211203580239	0
0	4367	16490.045363502775	1
0	4368	16490.638716791473	0
0	4375	16516.645229947953	1
0	4376	16518.522441428074	0
0	4379	16541.849465949174	1
0	4380	16543.777431531971	0
0	4390	16585.563313459092	1
0	4391	16586.469569163943	0
0	4395	16591.659506460304	1
0	4399	16592.903314951702	0
0	4403	16615.572331888226	1
0	4404	16617.640130983811	0
0	4415	16666.633455357632	1
0	4416	16666.822421454212	0
0	4423	16746.281285895126	1
0	4424	16747.741572538557	0
0	4435	16782.295546809618	1
0	4436	16782.962189851532	0
0	4439	16806.945845337706	1
0	4440	16807.697816378605	0
0	4443	16808.375112580793	1
0	4444	16810.248589886294	0
0	4447	16817.645898237893	1
0	4448	16817.73707939189	0
0	4471	16914.750963332782	1
0	4472	16916.947429842916	0
0	4475	16947.451270040119	1
0	4476	16948.149510535999	0
0	4479	16979.268586892806	1
0	4480	16981.796111827836	0
0	4483	16993.736083319206	1
0	4484	16993.85199210801	0
0	4503	17080.549584518567	1
0	4504	17083.545673381874	0
0	4507	17111.360371776521	1
0	4508	17111.423791102282	0
0	4531	17205.318449104313	1
0	4535	17208.30079109932	0
0	4543	17262.894851078287	1
0	4544	17263.617703881747	0
0	4555	17346.30691980074	1
0	4556	17346.333187872566	0
0	4559	17346.965828312639	1
0	4560	17347.518635116927	0
0	4566	17386.662232305572	1
0	4571	17388.705919261549	0
0	4607	17508.006180780545	1
0	4608	17509.433012725427	0
0	4611	17510.629834681983	1
0	4612	17512.231685975837	0
0	4615	17523.646161826071	1
0	4616	17526.393697234714	0
0	4635	17618.643602064758	1
0	4636	17620.816241112872	0
0	4639	17631.687832477314	1
0	4640	17633.109780297774	0
0	4646	17636.672330216951	1
0	4647	17636.726481361257	0
0	4651	17652.90385848421	1
0	4652	17653.988656361761	0
0	4655	17659.037621422908	1
0	4656	17660.455543722067	0
0	4663	17682.475538008797	1
0	4667	17683.913079536555	0
0	4679	17744.563584477985	1
0	4680	17746.082191260951	0
0	4683	17748.82688063091	1
0	4684	17751.617666532309	0
0	4695	17789.591451379821	1
0	4699	17791.983689375902	0
0	4703	17801.45379443026	1
0	4704	17801.637579574149	0
0	4707	17802.399146094121	1
0	4708	17803.601187458973	0
0	4718	17850.857823012906	1
0	4719	17853.846702441729	0
0	4723	17871.05723234095	1
0	4724	17872.902719446578	0
0	4734	17916.981281971548	1
0	4735	17917.277098876316	0
0	4743	17952.568994556513	1
0	4744	17953.459184819111	0
0	4747	17963.860539337096	1
0	4748	17965.111807361383	0
0	4751	17974.96432220832	1
0	4752	17975.972420811356	0
0	4755	17980.410029524229	1
0	4756	17981.6147353667	0
0	4763	18079.146094035713	1
0	4767	18080.255240649992	0
0	4771	18085.938359907035	1
0	4772	18086.707137324426	0
0	4779	18109.123472295621	1
0	4780	18111.490179052753	0
0	4787	18131.959497709775	1
0	4791	18132.094441868862	0
0	4795	18190.367215543432	1
0	4796	18190.955057908098	0
0	4819	18290.583936784496	1
0	4820	18291.003723530931	0
0	4823	18293.937922659518	1
0	4824	18294.858055692578	0
0	4827	18294.917326594207	1
0	4828	18296.235216608632	0
0	4835	18347.93113151962	1
0	4836	18349.094738251048	0
0	4863	18428.298271181012	1
0	4864	18428.6583540214	0
0	4867	18439.137304744041	1
0	4868	18440.953055383263	0
0	4883	18503.1775072135	1
0	4884	18506.034863278219	0
0	4894	18531.282132650043	1
0	4895	18531.812943818339	0
0	4903	18597.605438265036	1
0	4904	18597.748822159949	0
0	4911	18606.319879178952	1
0	4912	18606.671823274221	0
0	4915	18607.847113808607	1
0	4916	18608.52169043756	0
0	4919	18623.898351153027	1
0	4920	18626.255440007935	0
0	4931	18659.466569473622	1
0	4932	18660.337346314188	0
0	4935	18685.332447755648	1
0	4936	18687.946353806411	0
0	4939	18701.478304646913	1
0	4940	18702.610312169797	0
0	4946	18716.803977403254	1
0	4950	18719.62494902401	0
0	4955	18825.88033616182	1
0	4956	18828.469603336493	0
0	4959	18888.511990225234	1
0	4960	18891.468648118827	0
0	4963	18895.017482281243	1
0	4964	18895.811004410987	0
0	4967	18903.934472531719	1
0	4968	18905.928056629041	0
0	4975	18964.725823792915	1
0	4976	18966.834293141478	0
0	4979	18979.950208168462	1
0	4980	18980.996072848309	0
0	4983	18996.673210979518	1
0	4984	18996.916347623728	0
0	4990	19026.480173823356	1
0	4992	19029.456715881769	0
0	5003	19128.102322752488	1
0	5004	19129.285571955363	0
0	5029	19228.932661305477	1
0	5030	19230.763046494638	0
0	5042	19254.039740131302	1
0	5047	19255.790949180611	0
0	5053	19260.737262470037	1
0	5054	19262.969734476988	0
0	5062	19273.758530797808	1
0	5063	19274.153841971558	0
0	5067	19284.830581936034	1
0	5068	19287.602392128291	0
0	5078	19340.772906924634	1
0	5079	19342.835532142475	0
0	5083	19388.591169508734	1
0	5084	19388.880062162919	0
0	5097	19406.577240580177	1
0	5098	19407.644754078889	0
0	5107	19433.074629579906	1
0	5108	19435.588064318803	0
0	5111	19474.417825742072	1
0	5112	19474.847391626587	0
0	5115	19494.938636062703	1
0	5116	19496.722589706399	0
0	5119	19537.336495621172	1
0	5120	19538.451994652398	0
0	5123	19565.60946483424	1
0	5124	19566.026936223305	0
0	5127	19566.418519180511	1
0	5128	19566.814651002709	0
0	5139	19682.714258233515	1
0	5140	19685.025659284772	0
0	5151	19746.503965136266	1
0	5152	19749.472168994807	0
0	5162	19759.646764969211	1
0	5163	19760.355511112051	0
0	5167	19781.368956828455	1
0	5168	19782.493849674132	0
0	5171	19798.693574831982	1
0	5172	19799.849794046958	0
0	5179	19817.87700799339	1
0	5180	19818.273245833286	0
0	5193	19883.614543737342	1
0	5197	19885.13055009594	0
0	5203	19895.363707444198	1
0	5204	19897.572239287798	0
0	5211	19922.896443095151	1
0	5212	19923.468255019004	0
0	5224	19938.574018861072	1
0	5225	19939.137532963941	0
0	5242	20065.889204162279	1
0	5243	20066.864178754321	0
0	5258	20091.633905988468	1
0	5259	20091.863315946549	0
0	5271	20121.248072692181	1
0	5272	20121.607679704083	0
0	5275	20179.900184236987	1
0	5276	20180.951357555537	0
0	5294	20270.827655383776	1
0	5298	20273.271610723029	0
0	5303	20282.615665231605	1
0	5304	20284.129713950794	0
0	5311	20296.556585129648	1
0	5312	20299.53955215231	0
0	5315	20304.314089035709	1
0	5316	20305.534758151481	0
0	5338	20341.92171656905	1
0	5339	20342.89297293166	0
0	5343	20371.069724913949	1
0	5344	20372.583799619203	0
0	5354	20412.77895361123	1
0	5355	20412.878819825998	0
0	5365	20427.958038251953	1
0	5366	20430.002937554191	0
0	5379	20457.779622224927	1
0	5380	20460.360659869049	0
0	5391	20489.84885950491	1
0	5392	20491.019823485789	0
0	5411	20604.616900164587	1
0	5412	20606.246139860819	0
0	5415	20610.492168262816	1
0	5416	20613.178051371875	0
0	5419	20622.040097300023	1
0	5420	20622.05910174497	0
0	5423	20627.7418827701	1
0	5424	20628.222005354818	0
0	5431	20656.37274839832	1
0	5432	20657.887052932485	0
0	5439	20686.590021043464	1
0	5440	20687.889412771166	0
0	5463	20736.74424274449	1
0	5464	20736.910473166139	0
0	5474	20766.19103126121	1
0	5475	20768.540057047609	0
0	5479	20777.543846019605	1
0	5480	20780.296649179945	0
0	5486	20792.862936490453	1
0	5487	20793.836988827654	0
0	5507	20891.04423379267	1
0	5508	20893.613935526239	0
0	5511	20924.056486908155	1
0	5512	20925.66843346134	0
0	5519	20942.883135388441	1
0	5520	20943.202309656247	0
0	5523	20973.163091787353	1
0	5524	20973.178680357935	0
0	5533	21006.915020426575	1
0	5534	21009.132367701557	0
0	5547	21067.688459202066	1
0	5548	21069.056143542261	0
0	5555	21126.49077476954	1
0	5556	21127.134302551175	0
0	5559	21150.358808719685	1
0	5560	21150.857590341232	0
0	5563	21157.17312237561	1
0	5564	21158.417249936056	0
0	5567	21229.736934111529	1
0	5568	21231.940741882767	0
0	5571	21232.908251736199	1
0	5572	21234.706625586003	0
0	5583	21268.072412572331	1
0	5584	21269.056542025184	0
0	5591	21301.113435814318	1
0	5592	21302.182048364212	0
0	5595	21328.864774112384	1
0	5596	21330.55412171586	0
0	5599	21347.987545900632	1
0	5600	21349.111440411597	0
0	5603	21354.994844297537	1
0	5604	21355.739402138841	0
0	5607	21370.047710116019	1
0	5608	21370.699131034456	0
0	5611	21373.829805262508	1
0	5612	21375.543274239917	0
0	5626	21393.495260521504	1
0	5627	21395.454096304582	0
0	5630	21398.310225389898	1
0	5631	21398.514832100016	0
0	5640	21403.775585150004	1
0	5647	21406.711573308942	0
0	5657	21412.137454833124	1
0	5658	21414.916117846307	0
0	5666	21423.971079070137	1
0	5667	21426.092016668359	0
0	5671	21427.749200840546	1
0	5672	21429.906610607172	0
0	5679	21463.765513898508	1
0	5680	21465.284516852155	0
0	5683	21466.418724490336	1
0	5687	21467.670540670716	0
0	5699	21538.165128404221	1
0	5700	21540.055100585438	0
0	5703	21570.601202545097	1
0	5704	21573.197070236993	0
0	5721	21625.77361929989	1
0	5724	21628.74183924081	0
0	5727	21644.493892769137	1
0	5728	21647.484331913279	0
0	5743	21678.011497583129	1
0	5744	21678.556665111448	0
0	5755	21708.368657396344	1
0	5756	21709.075559291549	0
0	5759	21716.587343961872	1
0	5760	21717.257836496525	0
0	5763	21737.443183870273	1
0	5764	21740.280000705812	0
0	5767	21744.816364251573	1
0	5768	21745.519655961904	0
0	5774	21786.74171790529	1
0	5778	21787.616029455117	0
0	5807	21915.39417203452	1
0	5808	21917.800793833641	0
0	5819	22001.761167144	1
0	5820	22002.112243799741	0
0	5847	22115.439326251524	1
0	5848	22115.898036833821	0
0	5851	22122.522757481185	1
0	5852	22123.604005641773	0
0	5855	22126.918709948001	1
0	5856	22127.606484005718	0
0	5866	22150.277133962892	1
0	5867	22151.726483893633	0
0	5910	22249.65633190592	1
0	5911	22250.649296781619	0
0	5915	22252.268870222518	1
0	5916	22252.308692775245	0
0	5931	22323.144875164892	1
0	5932	22323.549377803383	0
0	5935	22343.750664135199	1
0	5939	22344.07340545302	0
0	5943	22357.893960535861	1
0	5944	22360.785197185602	0
0	5955	22388.056801950806	1
0	5956	22388.101698446128	0
0	5959	22390.853546463665	1
0	5960	22390.906970563611	0
0	5967	22409.519357119351	1
0	5968	22409.964386904387	0
0	5975	22498.017477917048	1
0	5976	22500.817108952548	0
0	5979	22517.091627951838	1
0	5980	22519.989210087943	0
0	5987	22582.055710405582	1
0	5988	22583.532569513049	0
0	6011	22667.470936106524	1
0	6012	22668.192243335061	0
0	6031	22776.055169177895	1
0	6032	22778.041666822709	0
0	6039	22799.930494970478	1
0	6040	22801.333644794127	0
0	6050	22838.890878942213	1
0	6052	22841.602271392157	0
0	6061	22848.716112014005	1
0	6062	22849.068587896608	0
0	6066	22852.985114773859	1
0	6068	22855.522526180861	0
0	6071	22910.61385932583	1
0	6072	22913.057538295983	0
0	6083	22958.563648576763	1
0	6084	22959.614487191335	0
0	6097	22998.86365434975	1
0	6099	23000.605882331053	0
0	6103	23015.39008310948	1
0	6104	23016.620226423923	0
0	6107	23021.534490510699	1
0	6108	23022.080549896939	0
0	6115	23066.147451207437	1
0	6116	23066.926718368111	0
0	6119	23088.50118750762	1
0	6120	23089.221425840605	0
0	6123	23132.014823125382	1
0	6124	23132.085785785764	0
0	6135	23246.559832127576	1
0	6136	23247.391365046767	0
0	6143	23287.508042422699	1
0	6144	23287.520791339076	0
0	6150	23339.303610474328	1
0	6151	23339.374123144005	0
0	6159	23380.198675138939	1
0	6160	23381.425691855878	0
0	6175	23416.855246226193	1
0	6176	23417.182055056727	0
0	6183	23442.758581739786	1
0	6184	23444.487250375744	0
0	6187	23445.4822700047	1
0	6188	23448.090716051327	0
0	6191	23466.073130092164	1
0	6192	23466.856552437278	0
0	6202	23528.880062734717	1
0	6204	23529.871063315197	0
0	6207	23538.77260473571	1
0	6208	23539.548316189176	0
0	6211	23547.824786622149	1
0	6212	23549.766499063794	0
0	6215	23551.060284241287	1
0	6216	23552.922619656443	0
0	6219	23561.277313412771	1
0	6220	23562.224676454944	0
0	6227	23587.316967081336	1
0	6228	23589.943595122496	0
0	6235	23626.708946399531	1
0	6236	23628.090473209758	0
0	6242	23637.593969116467	1
0	6243	23640.206115863189	0
0	6254	23706.639378795091	1
0	6255	23707.14829130979	0
0	6259	23734.398163493881	1
0	6263	23736.328824464776	0
0	6270	23780.658624579437	1
0	6275	23783.340226256775	0
0	6282	23840.420031474244	1
0	6284	23842.770777839231	0
0	6287	23863.275085679348	1
0	6288	23864.931771603535	0
0	6294	23872.97170426054	1
0	6298	23874.492241559708	0
0	6307	23882.997632664047	1
0	6308	23884.449615293685	0
0	6311	23890.834071314263	1
0	6315	23893.355003330849	0
0	6323	23936.664887455823	1
0	6324	23939.501325144981	0
0	6327	23945.149231271157	1
0	6328	23945.179359509162	0
0	6331	23949.395758706014	1
0	6332	23951.607787902039	0
0	6339	23968.019883729514	1
0	6340	23970.024338713254	0
0	6343	24009.090233158614	1
0	6344	24009.248700993514	0
0	6351	24033.159243511221	1
0	6352	24033.483057229627	0
0	6355	24089.032359122596	1
0	6356	24090.596675679845	0
0	6359	24103.194477903592	1
0	6360	24104.683895736452	0
0	6370	24151.141407635075	1
0	6372	24152.89124362968	0
0	6375	24191.356333981283	1
0	6376	24191.818043779493	0
0	6390	24220.457600615853	1
0	6391	24220.833723762599	0
0	6398	24230.740677843373	1
0	6405	24232.733977814036	0
0	6411	24246.777826801153	1
0	6412	24247.79688760117	0
0	6423	24311.712697269604	1
0	6424	24313.131103392844	0
0	6435	24362.000741418139	1
0	6436	24364.954752439624	0
0	6451	24451.970585517966	1
0	6452	24453.606103070999	0
0	6455	24461.091059904419	1
0	6456	24464.078713493448	0
0	6471	24531.447106708876	1
0	6472	24533.919189834998	0
0	6475	24553.490106446917	1
0	6476	24554.785292751991	0
0	6479	24560.493189108854	1
0	6480	24560.733239430855	0
0	6483	24567.127256943967	1
0	6484	24567.196572785821	0
0	6487	24583.677136484469	1
0	6488	24585.153747241286	0
0	6491	24598.256782380636	1
0	6492	24600.952255996807	0
0	6495	24607.413285526249	1
0	6496	24610.246319225914	0
0	6502	24613.854021772728	1
0	6503	24615.59580245084	0
0	6507	24644.973807508697	1
0	6508	24647.07437773551	0
0	6521	24655.600440446957	1
0	6522	24656.560702058611	0
0	6530	24664.462297984203	1
0	6531	24666.554691340268	0
0	6539	24686.375793681273	1
0	6540	24687.156710792627	0
0	6551	24733.192847871038	1
0	6552	24734.133158971537	0
0	6559	24761.420635299324	1
0	6560	24764.193350611385	0
0	6569	24773.80519699878	1
0	6570	24775.266299016597	0
0	6573	24776.564806153237	1
0	6574	24776.732387370551	0
0	6585	24786.86009316222	1
0	6586	24788.149399272142	0
0	6594	24794.967459490928	1
0	6596	24797.731335442168	0
0	6603	24841.802195197839	1
0	6608	24844.127650751731	0
0	6611	24846.826692362303	1
0	6612	24849.02160463251	0
0	6619	24889.969512811965	1
0	6620	24890.266430950428	0
0	6623	24908.765684221947	1
0	6624	24910.112926727785	0
0	6630	24935.691618164483	1
0	6631	24936.54443411786	0
0	6639	24944.573071266735	1
0	6640	24947.033224956048	0
0	6655	24996.194144020638	1
0	6656	24997.099551162772	0
0	6659	25015.717275647399	1
0	6660	25016.648566420714	0
0	6667	25059.846244420162	1
0	6668	25060.655585977688	0
0	6678	25097.434304416705	1
0	6679	25098.167214541138	0
0	6691	25145.063313955322	1
0	6692	25146.079733266913	0
0	6705	25163.193005740354	1
0	6706	25165.994243629295	0
0	6711	25184.296963919497	1
0	6712	25186.36871627692	0
0	6723	25211.742894717749	1
0	6724	25212.62366240206	0
0	6730	25223.742332948834	1
0	6731	25225.838434132376	0
0	6738	25251.570614103654	1
0	6739	25253.088861170769	0
0	6763	25360.516438371345	1
0	6764	25363.297638496007	0
0	6775	25427.197884148233	1
0	6776	25427.237933559809	0
0	6779	25435.105415993685	1
0	6780	25435.891408657014	0
0	6795	25479.419567552908	1
0	6796	25481.181183158668	0
0	6799	25486.048565385996	1
0	6800	25487.105501434363	0
0	6827	25644.484600162678	1
0	6828	25645.150836198658	0
0	6831	25661.770765453334	1
0	6832	25662.081905989834	0
0	6838	25700.084588376105	1
0	6839	25700.138266593716	0
0	6863	25802.63347829778	1
0	6864	25802.639392150762	0
0	6867	25804.901334694438	1
0	6868	25805.724085967174	0
0	6898	25932.248697979764	1
0	6899	25935.042106965275	0
0	6910	25957.908159780784	1
0	6911	25958.236380526212	0
0	6919	25981.381560735477	1
0	6920	25983.200966248882	0
0	6935	26050.9148894333	1
0	6936	26053.566181174379	0
0	6942	26058.735203367982	1
0	6943	26060.64784364536	0
0	6947	26089.754638095344	1
0	6948	26090.08929155852	0
0	6958	26136.599544100382	1
0	6959	26136.923386600707	0
0	6963	26170.983288488044	1
0	6964	26171.255540617299	0
0	6967	26177.656765522826	1
0	6968	26178.257989321621	0
0	6971	26180.734807797755	1
0	6972	26181.847373687516	0
0	6978	26210.656757226364	1
0	6979	26213.404179436572	0
0	6986	26229.858889277505	1
0	6987	26230.42758285669	0
0	6991	26254.737790081089	1
0	6992	26255.272412805289	0
0	7003	26272.752974978419	1
0	7004	26272.99888712799	0
0	7010	26305.139695432072	1
0	7011	26306.814429583465	0
0	7019	26316.418980029392	1
0	7020	26316.733874350634	0
0	7031	26416.071906133586	1
0	7032	26417.34639139549	0
0	7038	26436.515707172698	1
0	7039	26436.940488325286	0
0	7043	26456.020044303183	1
0	7044	26458.398789558717	0
0	7047	26459.176297851689	1
0	7048	26459.653282623129	0
0	7051	26464.311824044626	1
0	7052	26465.354295082752	0
0	7055	26475.348723949808	1
0	7056	26475.367980065531	0
0	7067	26518.009656446339	1
0	7068	26520.090107936879	0
0	7071	26522.167708024098	1
0	7072	26522.502641773917	0
0	7099	26678.049194075762	1
0	7100	26678.193717038294	0
0	7103	26709.679206304043	1
0	7104	26710.137305953395	0
0	7111	26801.46138402244	1
0	7112	26801.526883621528	0
0	7115	26831.604013272948	1
0	7116	26833.762980465205	0
0	7119	26838.366160432383	1
0	7120	26838.70151965676	0
0	7123	26847.098876229435	1
0	7128	26848.400540589931	0
0	7131	26857.788181958564	1
0	7132	26860.632957822884	0
0	7138	26872.613561751462	1
0	7139	26875.023679343191	0
0	7143	26882.918496290066	1
0	7144	26883.724269999712	0
0	7158	26914.231474937634	1
0	7159	26916.885196078599	0
0	7162	26924.574168766458	1
0	7163	26926.839925473155	0
0	7195	27062.134958140325	1
0	7196	27064.32711748353	0
0	7199	27095.056463872101	1
0	7200	27096.353023823447	0
0	7203	27120.033784782763	1
0	7204	27121.442408604745	0
0	7207	27137.957706783346	1
0	7208	27140.82291130548	0
0	7218	27157.277237549401	1
0	7220	27157.499789105777	0
0	7229	27175.659884644813	1
0	7230	27175.672696911988	0
0	7238	27210.227088977994	1
0	7239	27210.562272895521	0
0	7243	27247.842924006895	1
0	7244	27250.203859773013	0
0	7258	27317.599608787776	1
0	7259	27317.900284055648	0
0	7274	27357.854024520682	1
0	7275	27358.011978778064	0
0	7287	27415.756721160865	1
0	7288	27415.76821853631	0
0	7291	27416.635103885706	1
0	7292	27417.630216179088	0
0	7295	27426.953225457947	1
0	7296	27428.410819155958	0
0	7302	27487.373897125784	1
0	7306	27489.378289897563	0
0	7310	27496.222608172492	1
0	7311	27496.75303288086	0
0	7334	27583.555657939108	1
0	7336	27585.750080293417	0
0	7343	27657.15119616112	1
0	7344	27658.370658154056	0
0	7359	27740.353144050081	1
0	7360	27741.618214851459	0
0	7363	27756.417469745688	1
0	7364	27757.23468065794	0
0	7367	27768.724483264474	1
0	7368	27771.013772449859	0
0	7371	27779.65069289561	1
0	7372	27781.95610996395	0
0	7379	27802.078162460201	1
0	7380	27802.845207875148	0
0	7390	27839.228718922592	1
0	7391	27839.598564416153	0
0	7399	27865.657775644509	1
0	7400	27867.698733476258	0
0	7403	27891.962735904512	1
0	7404	27894.941738849983	0
0	7427	28007.978793016453	1
0	7428	28010.609257893801	0
0	7431	28028.256495869931	1
0	7432	28028.284126204851	0
0	7435	28031.923349258889	1
0	7436	28033.489319873616	0
0	7439	28036.000702044096	1
0	7440	28037.774848609228	0
0	7443	28071.019525375078	1
0	7444	28071.393207944905	0
0	7450	28087.187702885478	1
0	7451	28089.895296703001	0
0	7458	28099.49099724053	1
0	7459	28099.621451788182	0
0	7466	28120.567644871732	1
0	7467	28122.288229399224	0
0	7471	28133.745077229204	1
0	7472	28136.292492863633	0
0	7479	28164.626321023882	1
0	7480	28167.509771952021	0
0	7486	28194.694703054315	1
0	7487	28197.141845716059	0
0	7490	28200.006035055762	1
0	7491	28200.585238562574	0
0	7495	28240.395033070761	1
0	7496	28241.670022586065	0
0	7503	28317.279815446869	1
0	7504	28318.078780612092	0
0	7510	28325.989419974151	1
0	7511	28326.002374179252	0
0	7522	28364.268379162631	1
0	7523	28365.043508608252	0
0	7530	28398.006404972027	1
0	7531	28398.440748999836	0
0	7537	28405.485174312834	1
0	7538	28408.032795079096	0
0	7541	28409.653870014868	1
0	7542	28410.681217003735	0
0	7555	28455.244697703516	1
0	7556	28456.308657650755	0
0	7559	28512.170182709353	1
0	7560	28513.218893076411	0
0	7567	28528.264475088806	1
0	7568	28530.343769004967	0
0	7571	28547.28555394663	1
0	7572	28549.00010452001	0
0	7579	28560.901475894842	1
0	7580	28562.123895899354	0
0	7587	28587.880215124109	1
0	7588	28587.964499498345	0
0	7591	28611.615324878446	1
0	7592	28614.071235885676	0
0	7595	28636.942492298811	1
0	7596	28639.485458380293	0
0	7599	28655.308237838539	1
0	7600	28656.877666768954	0
0	7603	28658.990280070649	1
0	7604	28661.389188340059	0
0	7615	28774.480392745006	1
0	7616	28776.295631856023	0
0	7619	28777.137858908751	1
0	7620	28777.505652463648	0
0	7627	28815.619197721117	1
0	7628	28816.447133450839	0
0	7631	28833.725265134654	1
0	7632	28836.488324779583	0
0	7635	28836.698284942921	1
0	7636	28836.781858954141	0
0	7639	28845.416394489606	1
0	7640	28847.513383893315	0
0	7643	28851.774779594473	1
0	7644	28852.378822141917	0
0	7647	28855.259360056701	1
0	7648	28857.957621592774	0
0	7659	28892.550492206901	1
0	7660	28895.126809924427	0
0	7667	28942.401955451618	1
0	7668	28944.337819986537	0
0	7679	28999.600319914691	1
0	7680	29001.322275058751	0
0	7686	29005.213393018934	1
0	7687	29006.42432217557	0
0	7715	29098.724835385944	1
0	7716	29098.927532549203	0
0	7722	29106.6050230546	1
0	7723	29106.969669522617	0
0	7735	29176.948651683998	1
0	7736	29178.731353922924	0
0	7739	29196.579079080007	1
0	7743	29198.726593229659	0
0	7749	29203.710910778807	1
0	7750	29205.805146464299	0
0	7775	29351.900340270431	1
0	7776	29353.384919935523	0
0	7779	29393.893181797395	1
0	7780	29396.85186956112	0
0	7783	29402.701262366862	1
0	7784	29403.203854934873	0
0	7790	29420.149410965289	1
0	7791	29420.708172258189	0
0	7795	29548.564684854966	1
0	7796	29550.027030732891	0
0	7799	29571.957954080822	1
0	7800	29573.483284929371	0
0	7803	29575.253810263357	1
0	7804	29576.85352616132	0
0	7807	29584.695678783334	1
0	7808	29587.220339662702	0
0	7811	29596.178485890992	1
0	7815	29598.168660212776	0
0	7823	29628.97712187686	1
0	7824	29630.890244466674	0
0	7827	29634.416947072479	1
0	7828	29635.66007875282	0
0	7843	29720.338365526605	1
0	7847	29721.108746384979	0
0	7851	29745.025969224523	1
0	7852	29745.520102543867	0
0	7855	29747.224906112777	1
0	7856	29747.468326210021	0
0	7863	29785.203468881818	1
0	7864	29785.730484889389	0
0	7867	29797.490037032606	1
0	7868	29798.841662956313	0
0	7871	29810.895415408753	1
0	7872	29812.174561867801	0
0	7875	29849.218627254856	1
0	7876	29851.657461650447	0
0	7879	29867.280444656582	1
0	7880	29869.49892617238	0
0	7887	29884.166451603626	1
0	7888	29884.931971084492	0
0	7899	29957.041977526364	1
0	7900	29957.437322778819	0
0	7903	29965.6013188964	1
0	7904	29967.931102031588	0
0	7910	29977.221594132235	1
0	7911	29977.540776968393	0
0	7924	30008.062254089286	1
0	7925	30010.214087329118	0
0	7929	30013.909737787056	1
0	7934	30015.578729696913	0
0	7947	30057.759194755278	1
0	7948	30059.832355180718	0
0	7958	30099.550855996505	1
0	7960	30100.987870097624	0
0	7970	30113.829879809263	1
0	7974	30115.697553447791	0
0	7986	30169.957221784871	1
0	7987	30171.929604337805	0
0	7999	30234.450362730671	1
0	8000	30234.61398912298	0
0	8003	30247.930082051115	1
0	8004	30249.90129837057	0
0	8014	30292.860150270902	1
0	8015	30293.284383792831	0
0	8023	30342.618999630744	1
0	8024	30345.35854070305	0
0	8031	30372.961231281158	1
0	8035	30373.776896896421	0
0	8043	30418.183039076019	1
0	8044	30419.366491700348	0
0	8051	30432.146948312814	1
0	8052	30432.358746883743	0
0	8058	30434.461184918218	1
0	8059	30436.40296248063	0
0	8062	30438.664357089796	1
0	8063	30440.719052558839	0
0	8066	30442.476395782706	1
0	8067	30442.665490134459	0
0	8087	30519.076299927593	1
0	8088	30520.522716529161	0
0	8091	30520.781770353894	1
0	8092	30523.596505103942	0
0	8103	30580.040927727431	1
0	8104	30580.940885625842	0
0	8110	30589.685801307554	1
0	8115	30591.860097332333	0
0	8123	30615.946646199352	1
0	8127	30616.670579377719	0
0	8131	30626.749729130723	1
0	8132	30627.824467780802	0
0	8138	30724.350530180578	1
0	8140	30726.395364846764	0
0	8147	30760.669887799524	1
0	8148	30760.938542514446	0
0	8175	30862.194065187271	1
0	8176	30863.074908142527	0
0	8179	30877.503102457088	1
0	8180	30880.334402978844	0
0	8203	31019.071310211672	1
0	8204	31019.148927157519	0
0	8207	31035.735910407106	1
0	8208	31038.543651973554	0
0	8215	31077.195042164256	1
0	8216	31078.794253569116	0
0	8230	31168.448193628037	1
0	8231	31169.906171766548	0
0	8238	31176.995271241936	1
0	8239	31177.437400411302	0
0	8243	31186.559747030749	1
0	8244	31186.821017834541	0
0	8247	31190.929074281668	1
0	8255	31193.852343452657	0
0	8259	31236.316113384203	1
0	8260	31236.643306380902	0
0	8263	31251.828681965722	1
0	8264	31252.161552394015	0
0	8267	31302.082658551316	1
0	8268	31304.820607043941	0
0	8278	31334.45761849485	1
0	8280	31336.165750127096	0
0	8283	31340.919197191024	1
0	8284	31341.344939008297	0
0	8295	31388.534978545961	1
0	8296	31391.139237702442	0
0	8299	31393.159441814919	1
0	8300	31393.830203203769	0
0	8318	31447.828492496295	1
0	8319	31448.784282138296	0
0	8322	31450.12256604748	1
0	8323	31450.343845784388	0
0	8327	31461.634224893035	1
0	8328	31463.915396488699	0
0	8335	31476.389425774111	1
0	8336	31478.581655342701	0
0	8339	31491.170279442369	1
0	8340	31492.538590480382	0
0	8343	31497.090776430661	1
0	8344	31499.663918368848	0
0	8379	31593.547092340195	1
0	8380	31595.66163424728	0
0	8383	31599.897048431009	1
0	8384	31600.042247897624	0
0	8390	31615.592300124551	1
0	8391	31618.217985518534	0
0	8395	31667.79877143002	1
0	8399	31670.649836147611	0
0	8402	31673.457468175889	1
0	8409	31674.802192665245	0
0	8423	31728.196689599024	1
0	8424	31729.699222518059	0
0	8427	31732.634697706822	1
0	8428	31732.970268675501	0
0	8462	31862.807248508509	1
0	8463	31862.868010279672	0
0	8467	31881.643781435497	1
0	8468	31883.105171456243	0
0	8478	31905.183993451374	1
0	8479	31906.73051743012	0
0	8491	31935.535122977443	1
0	8492	31935.813287319184	0
0	8498	31952.96249744582	1
0	8499	31953.661743531341	0
0	8528	32016.871841338742	1
0	8529	32018.298869534041	0
0	8539	32102.661854297741	1
0	8540	32104.410198937245	0
0	8551	32163.209721993037	1
0	8552	32165.08336011207	0
0	8555	32165.683323332153	1
0	8563	32168.421341343276	0
0	8574	32245.334417690566	1
0	8575	32245.747141690366	0
0	8578	32250.227129653418	1
0	8579	32251.364022380224	0
0	8582	32253.303884286098	1
0	8583	32255.090059547173	0
0	8607	32319.34181128318	1
0	8608	32319.714486888603	0
0	8615	32345.36275400565	1
0	8616	32347.889636162706	0
0	8623	32413.168387150217	1
0	8624	32413.466136911035	0
0	8638	32462.381717488256	1
0	8639	32463.401183997822	0
0	8643	32469.992157329388	1
0	8644	32471.649557064471	0
0	8654	32510.649439244695	1
0	8659	32513.334309187785	0
0	8662	32517.116732698065	1
0	8664	32519.016905302266	0
0	8667	32568.439783890547	1
0	8668	32569.051204243215	0
0	8675	32690.665240339702	1
0	8676	32691.952629022997	0
0	8690	32754.709321287247	1
0	8691	32756.07786363251	0
0	8699	32780.299332907304	1
0	8700	32781.003785853104	0
0	8703	32819.121337902857	1
0	8704	32821.519242400077	0
0	8707	32855.798150528357	1
0	8708	32856.680927880497	0
0	8735	32959.733667604514	1
0	8736	32960.963152235194	0
0	8739	32980.825070360507	1
0	8743	32982.945858082078	0
0	8750	33015.811373503033	1
0	8754	33018.461840366959	0
0	8770	33055.932812154482	1
0	8771	33056.237814551474	0
0	8775	33074.207503796936	1
0	8776	33075.975565831727	0
0	8799	33206.969891125832	1
0	8800	33208.50133832586	0
0	8803	33212.23347620142	1
0	8804	33213.302884216689	0
0	8818	33285.961158844348	1
0	8819	33285.997888271109	0
0	8823	33288.640144490315	1
0	8824	33291.490259506594	0
0	8827	33315.05684764471	1
0	8828	33317.046238257768	0
0	8831	33346.470859357897	1
0	8832	33349.317905049732	0
0	8839	33431.864603914782	1
0	8840	33432.852035366701	0
0	8863	33564.070423776193	1
0	8864	33564.334290731214	0
0	8878	33601.466175954906	1
0	8880	33603.454536385235	0
0	8883	33604.865846731416	1
0	8884	33606.801417140877	0
0	8890	33647.010206712442	1
0	8891	33647.666190313563	0
0	8894	33650.521062406807	1
0	8896	33650.962445696777	0
0	8903	33664.221378380608	1
0	8904	33664.507000986348	0
0	8907	33666.902614182206	1
0	8908	33669.80480657796	0
0	8915	33691.008792823308	1
0	8916	33691.686377966757	0
0	8930	33726.4101512166	1
0	8931	33726.593825500831	0
0	8935	33783.76603482164	1
0	8939	33785.101224043447	0
0	8955	33854.72981618847	1
0	8956	33854.790668801113	0
0	8963	33872.298346823995	1
0	8964	33874.105676470495	0
0	8971	33963.706858830233	1
0	8972	33963.814897477532	0
0	8982	34033.702651128064	1
0	8986	34036.58474491828	0
0	8989	34038.827181395196	1
0	8990	34039.097948257245	0
0	8994	34053.774725501904	1
0	8998	34055.511010362472	0
0	9006	34154.886488015879	1
0	9007	34156.015451830157	0
0	9034	34287.907876667558	1
0	9036	34289.44143766054	0
0	9042	34309.435686883902	1
0	9043	34311.256978561319	0
0	9050	34330.620733575366	1
0	9051	34332.944059702322	0
0	9059	34385.492752212768	1
0	9060	34386.894285573287	0
0	9063	34388.185382652596	1
0	9064	34388.655854049978	0
0	9079	34455.930041947586	1
0	9080	34456.649281620579	0
0	9083	34460.875519746608	1
0	9084	34461.24885311577	0
0	9087	34465.326721533476	1
0	9088	34468.105209189637	0
0	9110	34555.900796601773	1
0	9112	34556.590790479154	0
0	9118	34580.507373470354	1
0	9122	34582.35395129687	0
0	9138	34659.648243964422	1
0	9140	34662.598246132197	0
0	9151	34693.147449127488	1
0	9155	34694.89945174433	0
0	9159	34697.772478060491	1
0	9160	34699.913704529144	0
0	9166	34708.088729153191	1
0	9167	34708.791061650054	0
0	9191	34756.410702042744	1
0	9192	34757.562312829162	0
0	9195	34774.794297071818	1
0	9196	34775.612664038109	0
0	9205	34803.964965081596	1
0	9207	34804.731757589883	0
0	9226	34845.794840315868	1
0	9228	34847.126196258853	0
0	9235	34876.02626907675	1
0	9236	34876.998313993342	0
0	9243	34963.112116119464	1
0	9244	34965.592615037276	0
0	9250	34992.135521580576	1
0	9252	34994.06798755959	0
0	9269	35118.9601101841	1
0	9270	35120.907967019941	0
0	9283	35155.826152329127	1
0	9284	35158.616307214608	0
0	9287	35190.096189413482	1
0	9288	35190.229038915687	0
0	9291	35192.639839014385	1
0	9292	35193.163534594312	0
0	9295	35194.539150679804	1
0	9296	35197.311048506759	0
0	9299	35202.866101357652	1
0	9300	35203.477137334827	0
0	9307	35249.928658123488	1
0	9308	35252.265949504796	0
0	9314	35258.14224118074	1
0	9321	35259.219654566325	0
0	9324	35260.229189427457	1
0	9325	35262.078177787028	0
0	9351	35362.507673464878	1
0	9352	35363.651159170982	0
0	9355	35401.055926805134	1
0	9356	35401.517455571677	0
0	9359	35405.30674455773	1
0	9360	35406.212686139432	0
0	9363	35410.638743559449	1
0	9364	35411.978648256145	0
0	9367	35420.844891347517	1
0	9368	35422.625604188185	0
0	9379	35440.689195296675	1
0	9380	35441.796117679175	0
0	9383	35455.082669974399	1
0	9384	35457.160270269823	0
0	9387	35468.389164110698	1
0	9388	35468.518195969491	0
0	9410	35634.388505889141	1
0	9412	35636.393818037466	0
0	9423	35666.355743647309	1
0	9424	35667.357821565427	0
0	9427	35709.760343220624	1
0	9428	35712.557293959445	0
0	9446	35775.405041560431	1
0	9448	35778.306272826836	0
0	9459	35854.664682446461	1
0	9460	35855.784949076915	0
0	9463	35889.884658485712	1
0	9464	35892.366126324229	0
0	9479	35952.529893087696	1
0	9480	35952.79106756855	0
0	9483	35959.40043375299	1
0	9484	35961.21960757142	0
0	9507	36091.914905540112	1
0	9508	36093.916133512912	0
0	9531	36225.671552186806	1
0	9532	36226.065128250376	0
0	9546	36278.537157503308	1
0	9550	36279.595946590915	0
0	9559	36301.334264904469	1
0	9560	36304.12422753803	0
0	9567	36330.426185040212	1
0	9568	36331.095666521699	0
0	9571	36346.975352612383	1
0	9572	36349.085911042505	0
0	9579	36364.963907513688	1
0	9580	36365.784600330528	0
0	9583	36387.498098631814	1
0	9587	36387.910326647417	0
0	9598	36403.138084053946	1
0	9599	36403.41013956309	0
0	9615	36478.879530552835	1
0	9616	36481.162103336639	0
0	9635	36585.606053320714	1
0	9636	36586.708244257294	0
0	9642	36597.257030510299	1
0	9643	36600.061757715698	0
0	9647	36606.525104790967	1
0	9648	36607.338780880623	0
0	9651	36618.464411325886	1
0	9652	36620.517397595887	0
0	9665	36684.954795916912	1
0	9667	36687.346882526181	0
0	9691	36758.654491479977	1
0	9692	36759.599891441191	0
0	9695	36793.345221661077	1
0	9696	36793.943522065356	0
0	9699	36818.065081202034	1
0	9703	36818.452587139144	0
0	9706	36818.991685106881	1
0	9711	36821.304289097237	0
0	9715	36835.411095441173	1
0	9716	36836.069725452901	0
0	9728	36872.55296762942	1
0	9732	36875.224461203972	0
0	9735	36905.099546743678	1
0	9736	36906.658817908784	0
0	9754	36977.469449343929	1
0	9755	36978.277552088787	0
0	9759	37022.694966923197	1
0	9760	37023.76309468289	0
0	9763	37083.812335643918	1
0	9764	37086.323996815371	0
0	9767	37094.649815673962	1
0	9768	37095.205528835775	0
0	9774	37155.128863876217	1
0	9775	37155.634976952523	0
0	9783	37239.974460600001	1
0	9787	37242.845914084413	0
0	9790	37249.053328689156	1
0	9792	37249.635777058973	0
0	9802	37358.391559308978	1
0	9804	37361.115139633665	0
0	9807	37362.920064526079	1
0	9808	37364.888718355387	0
0	9811	37372.113279159694	1
0	9812	37373.63233445735	0
0	9815	37380.986948615531	1
0	9816	37381.53658168096	0
0	9825	37407.13996093666	1
0	9826	37407.252577255994	0
0	9841	37454.719544428819	1
0	9842	37455.763704208318	0
0	9847	37476.845850137912	1
0	9851	37479.425230714173	0
0	9858	37485.257141307375	1
0	9859	37487.451289586702	0
0	9862	37487.504375217358	1
0	9863	37488.629066101887	0
0	9873	37512.345237176217	1
0	9875	37513.000179643541	0
0	9879	37527.037588394606	1
0	9880	37528.655330278847	0
0	9883	37535.334556711399	1
0	9887	37536.373183652883	0
0	9894	37559.61596413229	1
0	9895	37561.011479663697	0
0	9903	37579.48873408661	1
0	9904	37579.73242512806	0
0	9907	37580.834234237723	1
0	9908	37582.684094671787	0
0	9911	37587.445331941054	1
0	9912	37588.205935837632	0
0	9915	37588.416431861562	1
0	9916	37588.420255252006	0
0	9919	37603.400048410215	1
0	9920	37603.82891963443	0
0	9923	37608.288421391209	1
0	9924	37609.579670420308	0
0	9927	37617.60312831196	1
0	9928	37619.647116634017	0
0	9931	37620.385655816357	1
0	9932	37621.171285876084	0
0	9935	37635.976486152177	1
0	9936	37638.712261159553	0
0	9939	37686.303353096116	1
0	9940	37687.440578430957	0
0	9949	37706.234169526491	1
0	9951	37706.926943514026	0
0	9966	37755.627101486511	1
0	9968	37757.143174034108	0
0	9975	37827.25268427594	1
0	9976	37827.905673038065	0
0	9995	37906.428551405552	1
0	10000	37908.687316801975	0
0	10003	37930.577949548256	1
0	10004	37932.19002875972	0
0	10007	37975.053990009096	1
0	10008	37976.71259866529	0
0	10018	38004.456787567226	1
0	10019	38006.903651427543	0
0	10031	38139.597592266856	1
0	10032	38139.630738765557	0
0	10035	38153.27893481546	1
0	10040	38154.747020456186	0
0	10051	38187.619216031995	1
0	10052	38190.035782768698	0
0	10055	38223.528778056601	1
0	10056	38226.064869887548	0
0	10059	38246.348928532233	1
0	10060	38248.115009741934	0
0	10063	38266.311260597349	1
0	10064	38267.424948422871	0
0	10070	38288.698690942453	1
0	10072	38291.688110773726	0
0	10075	38325.913665082519	1
0	10076	38326.972643160694	0
0	10079	38328.27111641796	1
0	10080	38328.888038617985	0
0	10083	38332.775077608219	1
0	10084	38333.403985853813	0
0	10087	38336.011231734394	1
0	10088	38336.987084284707	0
0	10111	38548.916535139521	1
0	10112	38550.305271852874	0
0	10115	38595.448493752154	1
0	10116	38596.839737804798	0
0	10119	38611.569179598265	1
0	10120	38613.66289361375	0
0	10138	38761.50876895606	1
0	10140	38763.493051156498	0
0	10147	38798.554529745125	1
0	10148	38798.903903235671	0
0	10151	38804.230060351136	1
0	10152	38805.947712371646	0
0	10167	38901.204846395002	1
0	10171	38903.955225825242	0
0	10179	38939.039350551664	1
0	10180	38940.5037524854	0
0	10195	38978.720203672193	1
0	10196	38981.520240655638	0
0	10199	38981.659143831268	1
0	10200	38982.771183752151	0
0	10203	39002.335393759802	1
0	10204	39004.742542192843	0
0	10207	39016.851269331641	1
0	10208	39017.435543439287	0
0	10211	39040.517986794113	1
0	10212	39041.195444117065	0
0	10219	39048.397519151371	1
0	10220	39049.797852619005	0
0	10227	39081.319098184683	1
0	10228	39081.732429169627	0
0	10231	39093.378280079555	1
0	10232	39093.381226454209	0
0	10235	39105.317489114054	1
0	10236	39107.121322086208	0
0	10246	39122.679328964691	1
0	10247	39123.397371735673	0
0	10254	39144.202127613868	1
0	10259	39145.913783757879	0
0	10266	39180.248817816561	1
0	10267	39180.290909882478	0
0	10286	39264.473235761808	1
0	10288	39264.772715141739	0
0	10291	39266.731145576155	1
0	10292	39268.04387192186	0
0	10299	39314.184039747556	1
0	10300	39315.1452720484	0
0	10303	39321.188704293133	1
0	10304	39321.555243025729	0
0	10307	39321.974740275194	1
0	10308	39322.997471622941	0
0	10311	39328.445417908147	1
0	10312	39330.637436141215	0
0	10326	39357.313260083065	1
0	10327	39357.71133004245	0
0	10334	39407.514458684595	1
0	10335	39410.323440906864	0
0	10339	39435.49433000282	1
0	10340	39437.628050173612	0
0	10343	39442.341284213204	1
0	10344	39444.724338167418	0
0	10351	39479.779010818929	1
0	10355	39482.467681207902	0
0	10375	39588.70228423212	1
0	10376	39590.941083379847	0
0	10391	39738.382005527557	1
0	10392	39739.915674931614	0
0	10395	39739.96630437256	1
0	10396	39740.494410710354	0
0	10399	39744.096599783423	1
0	10400	39744.428331491634	0
0	10407	39791.864169534471	1
0	10408	39792.630904096142	0
0	10411	39797.091926207652	1
0	10412	39799.370326484154	0
0	10415	39853.521394094988	1
0	10416	39855.135090471851	0
0	10431	39908.535144945994	1
0	10432	39909.970107705631	0
0	10435	39925.510315962288	1
0	10436	39928.004990181193	0
0	10439	39929.676910873991	1
0	10440	39930.692152957383	0
0	10443	39971.353447748266	1
0	10444	39973.849357723862	0
0	10463	40018.227772949547	1
0	10464	40018.794306382508	0
0	10467	40050.586919980791	1
0	10468	40053.090339480769	0
0	10478	40090.681894886969	1
0	10479	40092.239001539332	0
0	10483	40109.347071054724	1
0	10484	40111.934657625957	0
0	10487	40121.299283544382	1
0	10488	40121.692459881034	0
0	10491	40122.127749812918	1
0	10492	40122.859317250619	0
0	10495	40137.586396512649	1
0	10496	40139.471488172383	0
0	10499	40145.154645433377	1
0	10500	40148.149681714019	0
0	10506	40160.57764854849	1
0	10507	40162.613126211664	0
0	10511	40165.374066704138	1
0	10512	40165.828986958614	0
0	10515	40191.25554707476	1
0	10516	40192.484851100361	0
0	10535	40269.178009270415	1
0	10536	40270.846594221676	0
0	10543	40343.759977527239	1
0	10544	40346.469944166732	0
0	10567	40487.8698577178	1
0	10577	40490.389510459874	0
0	10586	40558.172489485964	1
0	10587	40559.08875057128	0
0	10595	40614.772394757195	1
0	10596	40616.299174927702	0
0	10603	40648.386831708438	1
0	10604	40648.758350094897	0
0	10607	40656.683766548678	1
0	10608	40656.724553050313	0
0	10614	40721.130216904467	1
0	10618	40723.390956997347	0
0	10635	40775.906228223933	1
0	10636	40776.375752875948	0
0	10642	40787.239481678604	1
0	10643	40788.422975101206	0
0	10653	40825.424049384775	1
0	10655	40827.492853316012	0
0	10659	40886.060195935264	1
0	10660	40886.614594879345	0
0	10666	40895.010322993926	1
0	10667	40897.472578693207	0
0	10683	40933.688724860772	1
0	10684	40935.760276856292	0
0	10687	40937.65439091834	1
0	10688	40937.772628291522	0
0	10695	40970.777832348603	1
0	10696	40972.79613573587	0
0	10706	40996.451438849759	1
0	10708	40998.927927045822	0
0	10734	41070.72563099365	1
0	10735	41071.575275740611	0
0	10742	41090.264527781971	1
0	10743	41090.510016933457	0
0	10747	41134.986023962876	1
0	10748	41137.202481246773	0
0	10787	41253.705388509332	1
0	10791	41256.61347672625	0
0	10798	41271.333124928042	1
0	10799	41272.507840081136	0
0	10802	41276.595477279062	1
0	10803	41276.78712300163	0
0	10807	41300.94348442585	1
0	10808	41301.793495456687	0
0	10815	41320.631513869947	1
0	10816	41320.772078554531	0
0	10823	41348.372486835237	1
0	10824	41349.338677018911	0
0	10827	41373.307322641102	1
0	10828	41373.333976184664	0
0	10834	41393.36596750936	1
0	10835	41394.989081857279	0
0	10839	41407.145382671574	1
0	10843	41408.686727411318	0
0	10847	41417.819000532747	1
0	10848	41418.401539401182	0
0	10859	41445.384382163996	1
0	10860	41445.657151989084	0
0	10879	41513.296903756403	1
0	10880	41516.017304293847	0
0	10895	41605.37342953896	1
0	10896	41605.926581512604	0
0	10899	41610.450750452423	1
0	10900	41610.839106697581	0
0	10907	41641.075618883532	1
0	10908	41642.69601088778	0
0	10919	41696.557051983995	1
0	10920	41698.438917620558	0
0	10935	41816.151323912463	1
0	10936	41818.918097549408	0
0	10971	41975.12085449889	1
0	10972	41975.872930609402	0
0	10975	41984.284677595092	1
0	10976	41985.953616518405	0
0	10979	42027.529428890634	1
0	10980	42027.895197396946	0
0	10986	42052.398830838514	1
0	10987	42052.780357069709	0
0	10991	42072.810056107881	1
0	10996	42075.638023404252	0
0	10999	42105.383436903201	1
0	11000	42106.003877319049	0
0	11007	42165.920329961371	1
0	11008	42167.161940881287	0
0	11011	42167.232997460143	1
0	11015	42167.730811554501	0
0	11023	42188.148919674771	1
0	11024	42190.576298403167	0
0	11037	42236.8373306052	1
0	11039	42238.547478084087	0
0	11043	42254.98923026735	1
0	11050	42257.117785279464	0
0	11059	42295.476197222001	1
0	11060	42296.940265869292	0
0	11063	42303.94099945833	1
0	11064	42304.286135884646	0
0	11083	42355.782441947969	1
0	11084	42355.913780930757	0
0	11087	42373.742058948057	1
0	11088	42373.762618688061	0
0	11095	42401.007113030751	1
0	11096	42401.182867880205	0
0	11099	42407.350629768075	1
0	11100	42409.002194859864	0
0	11106	42420.673952985577	1
0	11107	42420.82092292912	0
0	11125	42457.734967516684	1
0	11126	42460.462951729831	0
0	11131	42469.918428238063	1
0	11132	42471.918839467819	0
0	11135	42494.929113863648	1
0	11136	42495.909581656936	0
0	11147	42553.308539815688	1
0	11148	42555.271074423949	0
0	11151	42588.096947217146	1
0	11152	42588.238009309721	0
0	11155	42638.701094306535	1
0	11156	42640.541091625993	0
0	11159	42654.119223802977	1
0	11160	42654.647649970357	0
0	11191	42824.802673956018	1
0	11192	42827.309247144155	0
0	11207	42866.778422112121	1
0	11208	42869.742412565913	0
0	11211	42873.603114634448	1
0	11212	42875.935155562398	0
0	11215	42901.993694267008	1
0	11216	42904.012872716032	0
0	11231	42939.440372537363	1
0	11232	42940.770599770158	0
0	11256	43099.469656688939	1
0	11257	43101.504060256478	0
0	11267	43141.374003679978	1
0	11268	43141.840055818728	0
0	11274	43155.349644104386	1
0	11275	43156.371900762901	0
0	11278	43157.314004457774	1
0	11279	43158.56700768403	0
0	11291	43227.288976038236	1
0	11292	43229.987694952265	0
0	11302	43252.866967825824	1
0	11303	43254.079640096722	0
0	11314	43281.445055786838	1
0	11316	43282.424307573738	0
0	11319	43292.716872966574	1
0	11323	43294.958652466123	0
0	11344	43467.1983114697	1
0	11345	43467.391301476976	0
0	11355	43486.864445697048	1
0	11356	43487.160985506436	0
0	11359	43529.862149656703	1
0	11364	43531.595803450061	0
0	11370	43535.795570897402	1
0	11374	43537.670355850115	0
0	11377	43538.646190602772	1
0	11379	43538.932739035422	0
0	11383	43568.176726653757	1
0	11384	43570.793115930996	0
0	11387	43573.885558599517	1
0	11391	43575.625285046358	0
0	11395	43580.355243167393	1
0	11396	43582.555653935364	0
0	11415	43683.786300341212	1
0	11416	43684.801041211551	0
0	11419	43777.177323332962	1
0	11423	43778.807625566716	0
0	11442	43871.81414255129	1
0	11443	43872.403814716675	0
0	11446	43874.276399147753	1
0	11450	43877.015862255788	0
0	11455	43890.774971747325	1
0	11456	43893.661032646557	0
0	11471	43963.610267797212	1
0	11472	43963.68953143021	0
0	11483	43999.046038139608	1
0	11484	44001.451097258773	0
0	11490	44019.094648402346	1
0	11491	44022.027831822122	0
0	11495	44054.97217530976	1
0	11496	44057.520835058187	0
0	11499	44096.009782996325	1
0	11500	44096.545379263554	0
0	11507	44132.664935722562	1
0	11508	44133.94460565342	0
0	11511	44137.249500843453	1
0	11512	44137.750772198891	0
0	11523	44205.411859297549	1
0	11524	44207.086594101501	0
0	11527	44212.424733340696	1
0	11531	44215.407796469363	0
0	11553	44277.513774691121	1
0	11554	44278.362674742962	0
0	11567	44295.308752311179	1
0	11568	44297.635188646146	0
0	11574	44334.842917503428	1
0	11576	44337.063698913959	0
0	11579	44353.362016895577	1
0	11580	44354.544605935496	0
0	11587	44387.330608913265	1
0	11591	44389.447094001851	0
0	11595	44412.088037966544	1
0	11596	44412.959321525756	0
0	11603	44451.262563294642	1
0	11604	44454.200630137929	0
0	11607	44464.156141867091	1
0	11608	44464.872062366023	0
0	11611	44474.065151016968	1
0	11612	44474.502617321523	0
0	11619	44511.708121756528	1
0	11623	44512.611647030722	0
0	11627	44549.619512771566	1
0	11628	44550.717738342978	0
0	11647	44608.426861674984	1
0	11648	44611.144078745064	0
0	11659	44675.972804499754	1
0	11660	44677.375569353187	0
0	11675	44729.283296913044	1
0	11676	44729.458486860478	0
0	11679	44734.351638301612	1
0	11680	44735.47788963709	0
0	11694	44834.138139527746	1
0	11695	44834.806176178889	0
0	11707	44902.144378624873	1
0	11708	44902.1939888099	0
0	11711	44925.483925237154	1
0	11712	44927.421614345437	0
0	11715	44947.467040960831	1
0	11716	44948.924430508326	0
0	11719	44952.878967650296	1
0	11720	44954.442277441554	0
0	11723	44969.87213154965	1
0	11724	44971.139176845014	0
0	11727	44985.399384224838	1
0	11728	44986.300459974446	0
0	11731	44991.180657520259	1
0	11732	44991.424180727207	0
0	11738	45047.266346230549	1
0	11739	45047.317468966366	0
0	11751	45107.794342762067	1
0	11752	45108.242168918737	0
0	11755	45135.564433996799	1
0	11756	45135.797178666446	0
0	11759	45149.597459013242	1
0	11763	45151.078933775926	0
0	11767	45156.772373649952	1
0	11768	45159.009733796011	0
0	11779	45194.167976158705	1
0	11780	45195.913579940622	0
0	11783	45196.734809203292	1
0	11784	45198.363364006669	0
0	11787	45230.989457244672	1
0	11791	45232.56064645045	0
0	11803	45254.508720956433	1
0	11804	45256.903208912944	0
0	11807	45257.019562232509	1
0	11808	45258.5907499001	0
0	11830	45304.066002695085	1
0	11831	45304.091535332953	0
0	11835	45330.687445257717	1
0	11836	45332.867538631175	0
0	11839	45334.03233154586	1
0	11843	45336.129662267642	0
0	11847	45347.767033435378	1
0	11848	45349.473479495115	0
0	11851	45352.933758025728	1
0	11852	45353.648534108189	0
0	11855	45362.095183153232	1
0	11859	45362.97356435011	0
0	11863	45381.671048589763	1
0	11864	45382.793537957107	0
0	11883	45509.995537154605	1
0	11884	45511.020708023114	0
0	11894	45546.407105997875	1
0	11895	45548.609254044963	0
0	11907	45634.709663804082	1
0	11908	45636.376859590125	0
0	11911	45638.980307928532	1
0	11912	45641.557385332443	0
0	11915	45645.530443046827	1
0	11916	45647.135839373486	0
0	11930	45751.184619417461	1
0	11932	45752.209230010925	0
0	11939	45796.920123602203	1
0	11940	45799.838011266764	0
0	11947	45835.880778697469	1
0	11948	45836.905563666017	0
0	11951	45854.946850613829	1
0	11952	45857.468289470205	0
0	11958	45923.639058459785	1
0	11962	45925.210522423647	0
0	11999	46031.729875972608	1
0	12000	46033.580219419183	0
0	12003	46040.610230005364	1
0	12004	46041.38292417365	0
0	12007	46046.968810872368	1
0	12008	46047.923197850927	0
0	12014	46077.282204804776	1
0	12015	46077.945646046028	0
0	12026	46098.69636866037	1
0	12028	46101.540759870222	0
0	12035	46191.797948031007	1
0	12036	46192.103907180841	0
0	12046	46210.635191784081	1
0	12047	46210.95924535895	0
0	12055	46258.48651717339	1
0	12056	46259.095529063816	0
0	12063	46296.218919828497	1
0	12064	46296.286616644226	0
0	12067	46355.25325606515	1
0	12068	46356.736271381431	0
0	12074	46378.555357125657	1
0	12076	46381.038576737868	0
0	12082	46427.890828658486	1
0	12083	46429.264145933984	0
0	12103	46494.055782105031	1
0	12104	46494.536694033195	0
0	12107	46507.848113801206	1
0	12111	46508.8247194735	0
0	12118	46533.32186592705	1
0	12119	46534.112039342031	0
0	12123	46541.315023866512	1
0	12124	46542.628271024639	0
0	12131	46564.963241874587	1
0	12132	46565.261863508764	0
0	12139	46597.24246047095	1
0	12140	46597.989698953977	0
0	12159	46711.416176399622	1
0	12160	46713.53035781955	0
0	12163	46727.148793837178	1
0	12164	46728.85604030053	0
0	12183	46805.239443487852	1
0	12184	46807.765194030104	0
0	12187	46825.5383215742	1
0	12191	46828.389915323263	0
0	12210	46930.598688995194	1
0	12211	46931.458754338685	0
0	12219	46965.072490080612	1
0	12220	46965.146952246185	0
0	12223	46987.252373339058	1
0	12224	46987.765985814886	0
0	12227	46995.641546956697	1
0	12228	46997.184455159595	0
0	12235	47055.112548921047	1
0	12236	47055.190369578485	0
0	12239	47062.891467866356	1
0	12240	47063.953880731951	0
0	12246	47065.921585765504	1
0	12247	47068.493113013885	0
0	12255	47166.746389241792	1
0	12256	47167.897204332406	0
0	12259	47197.992268868261	1
0	12260	47199.932714727238	0
0	12263	47215.774142236579	1
0	12267	47217.689368944102	0
0	12271	47239.51705440232	1
0	12272	47239.871871723183	0
0	12275	47249.645672629075	1
0	12276	47250.433536978068	0
0	12279	47273.171158641011	1
0	12280	47275.349344800434	0
0	12283	47292.135469260556	1
0	12284	47293.539866495444	0
0	12291	47338.238297815065	1
0	12292	47339.967070117037	0
0	12295	47345.465598493525	1
0	12296	47345.485866061841	0
0	12299	47381.011562907141	1
0	12300	47382.101919726162	0
0	12307	47446.093154496239	1
0	12308	47446.553394788734	0
0	12311	47455.60467674781	1
0	12312	47457.674690471629	0
0	12318	47464.840291585019	1
0	12319	47466.843975016141	0
0	12323	47475.19061621683	1
0	12324	47475.652226988217	0
0	12338	47521.909605398116	1
0	12339	47522.551050482035	0
0	12342	47527.681746675997	1
0	12343	47528.441977756612	0
0	12347	47530.916648479087	1
0	12348	47530.970431717572	0
0	12366	47566.954046030443	1
0	12368	47569.85228770317	0
0	12378	47632.097971280644	1
0	12383	47634.163830263696	0
0	12386	47639.6566331839	1
0	12387	47639.794305424369	0
0	12391	47656.3061356446	1
0	12392	47658.59459044837	0
0	12398	47687.049040943656	1
0	12399	47687.537646470972	0
0	12407	47728.704892665241	1
0	12408	47731.378374164617	0
0	12423	47887.295127475594	1
0	12424	47888.39972727127	0
0	12438	47910.504440611475	1
0	12439	47912.541178571606	0
0	12463	48039.776937858172	1
0	12464	48040.777742370894	0
0	12478	48131.782034175278	1
0	12479	48132.953553152843	0
0	12487	48154.292694843445	1
0	12488	48154.564942279237	0
0	12501	48183.046003854406	1
0	12502	48183.942648615686	0
0	12511	48203.742172886494	1
0	12512	48204.641947296392	0
0	12515	48215.615755997858	1
0	12516	48217.271105875737	0
0	12519	48225.277822355241	1
0	12520	48227.656287782822	0
0	12523	48231.512843927276	1
0	12524	48232.49592917607	0
0	12533	48246.70299932795	1
0	12534	48249.305121258686	0
0	12543	48297.780172221842	1
0	12544	48300.504780537891	0
0	12547	48304.427301574439	1
0	12548	48305.931419737492	0
0	12559	48352.685729934364	1
0	12560	48353.078908417021	0
0	12566	48376.966161528576	1
0	12567	48378.850953623272	0
0	12571	48396.189314073689	1
0	12572	48396.610321131942	0
0	12575	48403.028382769632	1
0	12576	48403.199573637855	0
0	12579	48408.761172740099	1
0	12580	48409.197325411833	0
0	12590	48426.494715947309	1
0	12596	48429.039211394709	0
0	12607	48468.172087078711	1
0	12608	48469.132866494034	0
0	12627	48529.182768365211	1
0	12628	48529.753171036038	0
0	12635	48574.184919950305	1
0	12636	48574.625159773834	0
0	12651	48653.245790924126	1
0	12652	48655.881677662205	0
0	12659	48679.75431347598	1
0	12660	48680.21079359066	0
0	12667	48743.394134704359	1
0	12668	48745.712763166028	0
0	12683	48819.468397060289	1
0	12688	48820.519455990912	0
0	12700	48843.218880374586	1
0	12702	48844.754834665675	0
0	12718	48965.492893980291	1
0	12719	48966.319192944688	0
0	12723	48985.719042751961	1
0	12724	48988.325850947549	0
0	12734	49030.159518784694	1
0	12735	49032.207536494417	0
0	12739	49037.162954412124	1
0	12740	49038.861249095919	0
0	12746	49046.762632985509	1
0	12748	49048.650063150746	0
0	12751	49058.065973585789	1
0	12752	49059.394641765862	0
0	12759	49074.241101402087	1
0	12760	49074.271836768714	0
0	12779	49132.006637956593	1
0	12783	49133.475814450592	0
0	12803	49236.251364471785	1
0	12804	49236.256531806636	0
0	12823	49269.805252191661	1
0	12824	49270.713291030169	0
0	12835	49442.055723312411	1
0	12836	49443.070831452163	0
0	12839	49450.252135567352	1
0	12840	49452.856963051055	0
0	12851	49482.836709171002	1
0	12852	49485.102366799033	0
0	12867	49514.609508025287	1
0	12868	49514.750022774832	0
0	12875	49560.109201832272	1
0	12876	49560.555490256933	0
0	12899	49637.460865339221	1
0	12900	49640.164131961525	0
0	12907	49654.026042380834	1
0	12908	49654.95295866974	0
0	12911	49661.617585602802	1
0	12912	49664.297956859141	0
0	12919	49682.291553041318	1
0	12920	49683.359242064704	0
0	12923	49714.292705723765	1
[...]
5	10904	41636.292392110296	7.136377152327
5	10912	41655.736278335042	3.525772086669
5	10916	41676.54937674978	12.581213072016
5	10924	41723.982928074904	7.24095827838
5	10928	41758.797106916412	12.202333910699
5	10932	41798.326225784393	4.578209025251
5	10940	41829.984920499025	8.947853476461
5	10944	41852.158353342535	7.181390985315
5	10948	41879.941847657454	11.318913265224
5	10952	41896.386292357373	4.949469969593
5	10959	41925.625739905693	18.008071832202
5	10968	41965.868250588394	32.580275978956
5	10988	42070.081337750903	18.243229101096
5	11004	42144.405637777044	17.845727346646
5	11020	42187.545341062792	9.217479833821
5	11028	42197.651822818901	5.778659894052
5	11040	42242.668444594841	13.434072628553
5	11056	42267.874824977771	3.389925686798
5	11071	42324.85533562537	12.096604470632
5	11076	42341.058056590255	6.466617121998
5	11080	42352.092359426562	7.959413296888
5	11092	42392.394673493124	3.095036302804
5	11108	42424.825650390582	5.750574707899
5	11115	42443.158149679833	5.980395844537
5	11127	42463.733484113643	9.722093604848
5	11143	42508.632513981729	7.961885973008
5	11164	42681.800980284562	13.163026353899
5	11168	42699.85949441498	9.571029854213
5	11176	42723.546869019265	18.84311225921
5	11183	42777.410419882817	3.707018144218
5	11188	42824.168358426965	15.176022528027
5	11199	42857.475811389977	10.946125245587
5	11203	42861.98983397247	3.649393649838
5	11224	42911.560107120768	6.195488873648
5	11228	42918.760665734726	3.040753892622
5	11236	43013.728187964185	4.647043152205
5	11240	43054.524602014658	6.730369120972
5	11263	43107.509451582391	23.233189564586
5	11284	43170.110264846851	26.316556909386
5	11288	43217.944552484668	7.452499559879
5	11296	43244.306599591972	11.594006808699
5	11307	43256.278075750493	8.063708296148
5	11315	43281.464621451813	4.528040846578
5	11324	43303.479197498817	9.832949372705
5	11331	43336.941993620712	12.343335378835
5	11346	43468.904707861922	8.311369092597
5	11350	43472.980549391071	3.466104815609
5	11380	43545.992475217962	11.808254211475
5	11403	43640.187688651693	10.842438949012
5	11408	43660.660155177072	5.473855616965
5	11412	43679.25334856058	3.240399935744
5	11424	43782.573303878473	4.385948400992
5	11428	43793.136068001808	3.495878520686
5	11432	43811.29886248218	3.006816055029
5	11436	43856.737610719386	5.155112898732
5	11451	43878.075441424831	13.839174637476
5	11460	43908.209204530433	9.550883242573
5	11467	43922.803885055942	8.082021753473
5	11479	43984.870442586957	11.059465565432
5	11492	44024.475453108946	14.652797794868
5	11504	44112.203820137038	11.950587571157
5	11516	44173.166157387068	17.757857582329
5	11520	44199.266429488003	3.945474040552
5	11532	44226.439905843871	11.897122232259
5	11536	44241.371495595261	4.676749793496
5	11544	44255.344198685931	11.061541635628
5	11556	44281.580798193829	12.787677000367
5	11563	44290.346966282683	7.292885974308
5	11575	44336.080000026604	4.998293066721
5	11584	44377.108766883142	4.106610955472
5	11592	44407.679654048472	19.180895895835
5	11600	44427.341216035602	3.164645455684
5	11616	44497.03462893607	17.279732413072
5	11632	44564.88114506232	4.490500675815
5	11639	44571.015723846007	5.872512458946
5	11644	44584.426791157651	4.264266422634
5	11652	44629.974153205132	10.330578853533
5	11656	44674.231197567677	9.839488727689
5	11664	44683.978902453549	3.388680808996
5	11672	44727.184212498913	4.965966322604
5	11687	44799.488066098877	3.630402517395
5	11699	44843.951125891976	9.947144506239
5	11704	44884.312357364152	7.679214430984
5	11740	45055.106120488339	11.120530730645
5	11747	45087.515253558864	17.153375181437
5	11772	45177.322309904855	5.107902983188
5	11776	45190.551732561083	5.158188089761
5	11796	45241.84901533758	4.464659988242
5	11800	45248.271082275385	3.404443590711
5	11819	45273.928549321967	6.062092384735
5	11824	45286.343606004565	3.916881850342
5	11832	45306.160011449355	5.014819041315
5	11860	45376.506479241279	13.829487018496
5	11868	45436.880750314802	8.16957125275
5	11872	45443.510011920575	5.471077008641
5	11879	45468.446139667352	13.905406349224
5	11888	45534.118199866878	8.969088821179
5	11896	45550.049166760447	13.526951159031
5	11900	45584.429739158257	13.725117550086
5	11904	45631.191172435144	3.517505373197
5	11923	45672.027847986482	9.635782334961
5	11931	45751.989472714945	16.892975749402
5	11936	45796.801901162798	6.563272886419
5	11944	45806.054166564042	4.767382814507
5	11964	45931.032400057647	14.722907116123
5	11971	45949.569098188584	4.091644180249
5	11978	45957.129955469786	6.409336621987
5	11995	46025.623773872015	18.885083758201
5	12016	46079.180846588844	5.00284578291
5	12020	46086.466139597173	5.421895807969
5	12027	46101.151242292926	12.6715299127
5	12032	46164.39618802423	12.40566464978
5	12040	46206.603180401396	12.976660428368
5	12048	46213.523872910094	3.393486496032
5	12052	46237.762068945967	3.1286946504
5	12060	46278.716072022139	8.218770608806
5	12075	46379.110770266935	13.880518961135
5	12090	46450.199944669821	23.00779889754
5	12096	46463.829568525608	4.397328789475
5	12100	46490.182358628575	22.967916524821
5	12120	46538.650805087777	8.614341827784
5	12128	46551.240226940333	4.848116590496
5	12136	46588.805228966941	14.963166791344
5	12144	46604.633005682709	5.408205449782
5	12148	46618.628054028789	13.678632076135
5	12152	46637.879576726656	3.467945478784
5	12156	46703.524943311397	10.970541776826
5	12168	46752.763667027536	3.504590943935
5	12179	46795.948231324056	14.759922798614
5	12192	46840.376406556241	12.925263609237
5	12196	46852.687831806853	3.156024673789
5	12200	46863.676422059968	9.340697799416
5	12204	46895.135051780473	4.969275591493
5	12212	46931.939022844465	3.784291189727
5	12216	46961.995180496754	9.178992726802
5	12232	47023.393167803813	6.770877515918
5	12248	47070.168974776246	5.611946328795
5	12252	47130.677251402193	4.008885594506
5	12268	47224.499783456939	7.575239364907
5	12288	47335.017386269808	16.878928856839
5	12304	47428.01015874548	6.048483962706
5	12320	47471.391059369586	10.200188006464
5	12328	47491.197312937199	5.164197944781
5	12332	47509.937746214352	5.75548408347
5	12344	47530.449520933396	10.775019306815
5	12355	47543.826657752707	11.215731351608
5	12363	47558.101629992225	6.495745232812
5	12372	47606.569381980091	9.846900380637
5	12379	47632.330949313718	13.471369075242
5	12388	47641.657439667599	8.431778607898
5	12400	47692.715409987614	8.068719892572
5	12404	47719.760126562942	8.199097276107
5	12415	47834.9973112965	10.143290248226
5	12420	47864.859810929681	5.537961467323
5	12428	47903.56889438807	8.245543993894
5	12435	47909.387918711626	4.922237492065
5	12444	47941.077492748696	3.024124470498
5	12452	47969.209507123262	9.590762929691
5	12460	48029.083723682475	10.837005056887
5	12472	48083.501836385143	5.888016157788
5	12480	48134.095446955236	5.742798843683
5	12484	48150.803459958151	3.673113991483
5	12492	48180.610109255368	8.814931495037
5	12503	48186.154225224767	4.064154647129
5	12508	48202.594843312494	8.710807047704
5	12538	48254.334910185506	14.234661828431
5	12555	48329.695274981471	8.818523866955
5	12568	48381.628332971793	15.534688207686
5	12584	48419.010560056346	3.289947135137
5	12591	48426.530920786597	4.826549292714
5	12603	48444.369726845484	5.699958614182
5	12616	48476.842987791793	4.198414292411
5	12620	48498.95057805252	5.485887863126
5	12624	48525.394357164935	11.057169867043
5	12632	48560.495960791271	8.342427031685
5	12640	48587.300704522199	5.584723539408
5	12644	48608.596574836367	4.905760780906
5	12648	48627.713817820452	3.596384448182
5	12656	48676.734961148168	16.092246176612
5	12664	48689.069946274172	3.632104915051
5	12672	48752.568944416773	5.147154788017
5	12676	48787.361285620202	5.575910163032
5	12680	48810.229346360403	4.015295702079
5	12701	48844.521613910062	11.303815100088
5	12714	48957.316279912062	16.294914247079
5	12728	49007.687659722581	5.650792534757
5	12736	49034.65167629592	6.807993126437
5	12747	49048.446560705875	4.972172882723
5	12756	49064.28143388031	4.655706866897
5	12764	49099.4695639208	4.51745418764
5	12768	49106.662957925065	6.998389702084
5	12775	49119.250501363714	10.545833988641
5	12784	49150.569340368098	17.850289673339
5	12788	49177.033918498796	7.266197340841
5	12798	49200.268299454053	4.551009085928
5	12811	49253.337729124605	10.377173881994
5	12819	49260.699834614744	6.808329076084
5	12828	49322.060056749422	9.26785133533
5	12832	49378.740065026943	6.772743845892
5	12844	49463.273774314721	9.695242091005
5	12848	49473.319305612975	6.525901230478
5	12863	49506.379866060599	10.126284786602
5	12872	49541.766222947533	8.00115909488
5	12880	49585.722566847801	3.143504758619
5	12887	49619.808722949283	19.925781257228
5	12894	49632.537204792226	4.701661167471
5	12904	49653.057412272294	6.522792581927
5	12916	49680.228716573325	5.247698775834
5	12928	49720.864413093246	5.510657865091
5	12943	49781.724697230865	3.249331293335
5	12953	49787.056544713723	4.675353506529
5	12963	49809.108338788972	4.366119185135
5	12972	49831.345526564826	13.126428681328
5	12976	49851.651728192977	5.271169197405
5	12980	49862.375792471371	5.40078409785
5	12984	49875.88877694089	5.108321141434
5	12988	49889.988224414792	4.315810899741
5	12992	49912.986818858434	6.323063536563
5	13004	49980.3844970202	16.997867128766
5	13008	49989.086881066319	4.822746022045
6	114	477.681416539008	1
6	115	477.820264677092	0
6	342	1330.904459427466	1
6	347	1333.858626440995	0
6	601	2347.749634164071	1
6	602	2348.653373306163	0
6	618	2421.77336693388	1
6	620	2423.910125283327	0
6	1384	5274.122605636121	1
6	1387	5276.513923285136	0
6	1454	5531.851042478161	1
6	1456	5532.352460958513	0
6	1714	6581.127465166141	1
6	1716	6581.853051593243	0
6	1766	6773.914420434035	1
6	1767	6774.471264470909	0
6	2146	8080.587650277118	1
6	2148	8082.99481577026	0
6	3282	12270.804637836323	1
6	3283	12271.381797387141	0
6	3336	12376.075656489569	1
6	3340	12378.875462504318	0
6	3842	14541.516588695189	1
6	3844	14543.489138920565	0
6	4022	15212.320718482586	1
6	4023	15213.140117982376	0
6	4057	15383.142358308955	1
6	4059	15384.165994179531	0
6	4362	16473.538335545609	1
6	4363	16473.593077801737	0
6	4666	17683.669090335194	1
6	4668	17685.378745097414	0
6	4698	17790.518693609544	1
6	4700	17792.69987369341	0
6	4766	18079.192659387843	1
6	4768	18080.784732762002	0
6	4790	18132.037544701885	1
6	4792	18133.058880271095	0
6	5045	19254.368650841648	1
6	5046	19254.598492620028	0
6	5297	20272.699468219159	1
6	5299	20273.511659882627	0
6	5643	21404.154501977015	1
6	5644	21404.515758176798	0
6	5686	21467.268982707704	1
6	5688	21469.148443482317	0
6	5938	22343.808681483009	1
6	5940	22345.752676622192	0
6	6262	23735.632101975951	1
6	6264	23736.423124224888	0
6	6606	24843.188007979167	1
6	6607	24844.078718880402	0
6	7126	26847.793218818207	1
6	7127	26847.840032597067	0
6	7973	30114.45331159123	1
6	7975	30117.239515223514	0
6	8113	30590.003390785391	1
6	8114	30590.20677123295	0
6	8126	30616.66547495576	1
6	8128	30616.883763062182	0
6	8250	31191.986909750557	1
6	8254	31193.326776674779	0
6	8561	32166.153398010759	1
6	8562	32166.486395916077	0
6	8938	33784.30293069789	1
6	8940	33785.419786789439	0
6	9121	34582.224494411233	1
6	9123	34582.641733854918	0
6	9154	34694.768683736717	1
6	9156	34697.746402428404	0
6	9702	36818.206372300423	1
6	9710	36820.853728738524	0
6	9998	37907.316374372043	1
6	9999	37908.585751556864	0
6	10038	38153.801625514761	1
6	10039	38153.84820828877	0
6	10617	40722.140296952256	1
6	10619	40723.488748765009	0
6	10994	42075.202029495462	1
6	10995	42075.276297303678	0
6	11014	42167.438971384862	1
6	11016	42168.658606050376	0
6	11046	42255.589413600995	1
6	11051	42257.268021678764	0
6	11362	43530.623652417943	1
6	11363	43530.652723733129	0
6	11373	43536.485127183302	1
6	11378	43538.776303080477	0
6	11390	43575.031874314361	1
6	11392	43575.81098988708	0
6	11622	44512.39042462973	1
6	11624	44513.435687538558	0
6	11762	45149.843253777016	1
6	11764	45151.474177360943	0
6	11790	45231.566891768007	1
6	11792	45233.599871988545	0
6	11842	45334.927137077963	1
6	11844	45336.618814557696	0
6	12110	46507.864865898962	1
6	12112	46509.782530494495	0
6	12594	48426.793037557682	1
6	12595	48428.06423199814	0
6	12686	48819.911078265483	1
6	12687	48820.500163872443	0
7	115	477.820264677092	0.138848138084
7	347	1333.858626440995	2.954167013529
7	602	2348.653373306163	0.903739142092
7	620	2423.910125283327	2.136758349447
7	1387	5276.513923285136	2.391317649015
7	1456	5532.352460958513	0.501418480352
7	1716	6581.853051593243	0.725586427102
7	1767	6774.471264470909	0.556844036874
7	2148	8082.99481577026	2.407165493142
7	3283	12271.381797387141	0.577159550818
7	3340	12378.875462504318	2.799806014749
7	3844	14543.489138920565	1.972550225376
7	4023	15213.140117982376	0.81939949979
7	4059	15384.165994179531	1.023635870576
7	4363	16473.593077801737	0.054742256128
7	4668	17685.378745097414	1.70965476222
7	4700	17792.69987369341	2.181180083866
7	4768	18080.784732762002	1.592073374159
7	4792	18133.058880271095	1.02133556921
7	5046	19254.598492620028	0.22984177838
7	5299	20273.511659882627	0.812191663468
7	5644	21404.515758176798	0.361256199783
7	5688	21469.148443482317	1.879460774613
7	5940	22345.752676622192	1.943995139183
7	6264	23736.423124224888	0.791022248937
7	6607	24844.078718880402	0.890710901235
7	7127	26847.840032597067	0.04681377886
7	7975	30117.239515223514	2.786203632284
7	8114	30590.20677123295	0.203380447559
7	8128	30616.883763062182	0.218288106422
7	8254	31193.326776674779	1.339866924222
7	8562	32166.486395916077	0.332997905318
7	8940	33785.419786789439	1.116856091549
7	9123	34582.641733854918	0.417239443685
7	9156	34697.746402428404	2.977718691687
7	9710	36820.853728738524	2.647356438101
7	9999	37908.585751556864	1.269377184821
7	10039	38153.84820828877	0.046582774009
7	10619	40723.488748765009	1.348451812753
7	10995	42075.276297303678	0.074267808216
7	11016	42168.658606050376	1.219634665514
7	11051	42257.268021678764	1.678608077769
7	11363	43530.652723733129	0.029071315186
7	11378	43538.776303080477	2.291175897175
7	11392	43575.81098988708	0.779115572719
7	11624	44513.435687538558	1.045262908828
7	11764	45151.474177360943	1.630923583927
7	11792	45233.599871988545	2.032980220538
7	11844	45336.618814557696	1.691677479733
7	12112	46509.782530494495	1.917664595533
7	12595	48428.06423199814	1.271194440458
7	12687	48820.500163872443	0.58908560696
8	1589	6081.787548770879	1
8	1592	6088.847361518481	0
8	2489	9579.971745413754	1
8	2492	9591.991265798589	0
8	2729	10267.202136498725	1
8	2732	10282.161434465072	0
8	2921	10900.872041383221	1
8	2922	10905.933357574912	0
8	2941	10984.920825241434	1
8	2943	10990.303122150806	0
8	3097	11679.087825354958	1
8	3103	11682.140828011974	0
8	3421	12788.872895683432	1
8	3424	12810.564978807829	0
8	3441	12846.430805785838	1
8	3443	12849.441900721009	0
8	3625	13681.221078669037	1
8	3632	13704.224567977479	0
8	3925	14859.597329195171	1
8	3928	14868.724050625488	0
8	4165	15787.325147886602	1
8	4166	15790.338430128904	0
8	4169	15792.309057240282	1
8	4171	15796.820658973801	0
8	4193	15861.037274622612	1
8	4194	15865.564126662093	0
8	4577	17391.782101197699	1
8	4583	17400.653651259396	0
8	5033	19231.32965801199	1
8	5035	19235.875331274114	0
8	5093	19404.879640594295	1
8	5100	19411.793590477718	0
8	5196	19885.033044784856	1
8	5200	19889.695676041009	0
8	5221	19935.796678058788	1
8	5226	19940.382881889521	0
8	5637	21402.194943040547	1
8	5646	21405.315222732397	0
8	5877	22166.032548288834	1
8	5880	22170.219153085288	0
8	5893	22200.441667214389	1
8	5895	22210.163567839444	0
8	6301	23874.705642661482	1
8	6302	23877.758671083128	0
8	6404	24231.465340515363	1
8	6406	24239.784012831523	0
8	6517	24652.018312055209	1
8	6524	24659.167145302256	0
8	6821	25626.714307902854	1
8	6824	25633.101053406047	0
8	7417	27935.876008145846	1
8	7418	27939.625852750273	0
8	7921	30007.573544285514	1
8	7935	30015.94362123397	0
8	8353	31522.317694103357	1
8	8361	31536.720133832025	0
8	8408	31673.870910839531	1
8	8412	31688.007441896645	0
8	8525	32016.085451055959	1
8	8532	32025.151251379587	0
8	8601	32311.72963882309	1
8	8602	32315.064607227759	0
8	8721	32880.436327534187	1
8	8724	32885.045151578572	0
8	8925	33715.336024282808	1
8	8932	33732.865620542233	0
8	9217	34825.577341058921	1
8	9220	34837.299743277327	0
8	9320	35258.931497780494	1
8	9327	35267.52626917069	0
8	9681	36732.746578860057	1
8	9685	36736.403984447249	0
8	9725	36869.761285661549	1
8	9729	36872.975149170463	0
8	10273	39197.905533284161	1
8	10278	39203.577408881267	0
8	10457	40002.521887047301	1
8	10459	40007.701178863929	0
8	10576	40489.83592995959	1
8	10579	40499.760832016676	0
8	10629	40739.229545282876	1
8	10632	40742.248563324708	0
8	11249	43096.751550277016	1
8	11258	43104.185799031503	0
8	11341	43463.977444558684	1
8	11351	43477.580007225982	0
8	11817	45272.622724787326	1
8	11820	45276.049849685817	0
8	11977	45952.506595219234	1
8	11979	45957.683961127654	0
8	11989	46009.816941031175	1
8	11994	46015.688533333853	0
8	12089	46446.021718508179	1
8	12091	46451.820595708434	0
8	12537	48250.602205329807	1
8	12539	48257.375011948157	0
8	12697	48837.839572750643	1
8	12704	48852.802896404547	0
8	12713	48957.170772981707	1
8	12715	48963.718968749254	0
8	12797	49198.520071621918	1
8	12799	49204.38067796425	0
8	12861	49498.822953478401	1
8	12862	49502.717356392208	0
8	12893	49630.215958155428	1
8	12896	49636.054859528801	0
8	12949	49785.054885196421	1
8	12956	49794.203479300345	0
9	1592	6088.847361518481	7.059812747602
9	2492	9591.991265798589	12.019520384835
9	2732	10282.161434465072	14.959297966347
9	2922	10905.933357574912	5.061316191691
9	2943	10990.303122150806	5.382296909372
9	3103	11682.140828011974	3.053002657016
9	3424	12810.564978807829	21.692083124397
9	3443	12849.441900721009	3.011094935171
9	3632	13704.224567977479	23.003489308442
9	3928	14868.724050625488	9.126721430317
9	4166	15790.338430128904	3.013282242302
9	4171	15796.820658973801	4.511601733519
9	4194	15865.564126662093	4.526852039481
9	4583	17400.653651259396	8.871550061697
9	5035	19235.875331274114	4.545673262124
9	5100	19411.793590477718	6.913949883423
9	5200	19889.695676041009	4.662631256153
9	5226	19940.382881889521	4.586203830733
9	5646	21405.315222732397	3.12027969185
9	5880	22170.219153085288	4.186604796454
9	5895	22210.163567839444	9.721900625055
9	6302	23877.758671083128	3.053028421646
9	6406	24239.784012831523	8.31867231616
9	6524	24659.167145302256	7.148833247047
9	6824	25633.101053406047	6.386745503193
9	7418	27939.625852750273	3.749844604427
9	7935	30015.94362123397	8.370076948456
9	8361	31536.720133832025	14.402439728668
9	8412	31688.007441896645	14.136531057114
9	8532	32025.151251379587	9.065800323628
9	8602	32315.064607227759	3.334968404669
9	8724	32885.045151578572	4.608824044385
9	8932	33732.865620542233	17.529596259425
9	9220	34837.299743277327	11.722402218406
9	9327	35267.52626917069	8.594771390196
9	9685	36736.403984447249	3.657405587192
9	9729	36872.975149170463	3.213863508914
9	10278	39203.577408881267	5.671875597106
9	10459	40007.701178863929	5.179291816628
9	10579	40499.760832016676	9.924902057086
9	10632	40742.248563324708	3.019018041832
9	11258	43104.185799031503	7.434248754487
9	11351	43477.580007225982	13.602562667298
9	11820	45276.049849685817	3.427124898491
9	11979	45957.683961127654	5.17736590842
9	11994	46015.688533333853	5.871592302678
9	12091	46451.820595708434	5.798877200255
9	12539	48257.375011948157	6.77280661835
9	12704	48852.802896404547	14.963323653904
9	12715	48963.718968749254	6.548195767547
9	12799	49204.38067796425	5.860606342332
9	12862	49502.717356392208	3.894402913807
9	12896	49636.054859528801	5.838901373373
9	12956	49794.203479300345	9.148594103924
10	8356	31526.97250332394	1
10	8367	31545.853586672065	0
10	9684	36733.227836168012	1
10	9687	36741.536262831959	0
10	12952	49786.840427860016	1
10	12955	49792.101427689908	0
11	8367	31545.853586672065	18.881083348125
11	9687	36741.536262831959	8.308426663947
11	12955	49792.101427689908	5.260999829892
12	11049	42256.049283036698	1
12	11052	42258.231336529927	0
13	11052	42258.231336529927	2.182053493229

