version 2
run Debugging_quick-0-20211221-22:35:18-8362
attr configname Debugging_quick
attr datetime 20211221-22:35:18
attr experiment Debugging_quick
attr inifile omnetpp.ini
attr iterationvars ""
attr iterationvarsf ""
attr measurement ""
attr network Network
attr processid 8362
attr repetition 0
attr replication #0
attr resultdir results
attr runnumber 0
attr seedset 0
param **.percentage_quick_tills 0.6
param **.quick_checkout_threshold 30
param **.number_of_tills 10
param *.externalWorld.arrival_mean 1
param *.externalWorld.service_distribution 0
param *.externalWorld.service_mean 35
param *.externalWorld.service_std_deviation 1
param **.logging true
param **.quick_tills[*].is_quick true
param **.standard_tills[*].is_quick false

vector 0 Network.supermarket.quick_tills[0] number_of_jobs_stat:vector ETV
attr source number_of_jobs
vector 1 Network.supermarket.standard_tills[0] number_of_jobs_stat:vector ETV
attr source number_of_jobs
vector 2 Network.supermarket.standard_tills[1] number_of_jobs_stat:vector ETV
attr source number_of_jobs
vector 3 Network.supermarket.standard_tills[2] number_of_jobs_stat:vector ETV
attr source number_of_jobs
vector 4 Network.supermarket.quick_tills[1] number_of_jobs_stat:vector ETV
attr source number_of_jobs
vector 5 Network.supermarket.quick_tills[1] response_time_stat:vector ETV
attr source response_time
vector 6 Network.supermarket.quick_tills[2] number_of_jobs_stat:vector ETV
attr source number_of_jobs
vector 7 Network.supermarket.standard_tills[3] number_of_jobs_stat:vector ETV
attr source number_of_jobs
vector 8 Network.supermarket.quick_tills[3] number_of_jobs_stat:vector ETV
attr source number_of_jobs
vector 9 Network.supermarket.quick_tills[4] number_of_jobs_stat:vector ETV
attr source number_of_jobs
vector 10 Network.supermarket.quick_tills[5] number_of_jobs_stat:vector ETV
attr source number_of_jobs
vector 11 Network.supermarket.quick_tills[3] response_time_stat:vector ETV
attr source response_time
vector 12 Network.supermarket.quick_tills[0] response_time_stat:vector ETV
attr source response_time
vector 13 Network.supermarket.quick_tills[2] response_time_stat:vector ETV
attr source response_time
vector 14 Network.supermarket.quick_tills[4] response_time_stat:vector ETV
attr source response_time
vector 15 Network.supermarket.quick_tills[5] response_time_stat:vector ETV
attr source response_time
vector 16 Network.supermarket.standard_tills[1] response_time_stat:vector ETV
attr source response_time
vector 17 Network.supermarket.standard_tills[2] response_time_stat:vector ETV
attr source response_time
vector 18 Network.supermarket.standard_tills[0] response_time_stat:vector ETV
attr source response_time
vector 19 Network.supermarket.standard_tills[3] response_time_stat:vector ETV
attr source response_time
0	3	0.795874504566	1
0	41	13.977765099044	2
0	53	19.682078432481	1
0	56	19.927745609239	2
0	83	26.896090621216	1
0	86	27.365119063678	2
0	116	35.659940689035	3
0	137	44.586929257724	2
0	178	59.710458535712	3
0	191	65.097050515602	2
0	197	65.646851804649	3
0	262	81.387513358099	4
0	303	93.727306413899	3
0	323	96.562702470629	4
0	324	96.838089914589	3
0	330	98.330707124703	4
0	331	98.9755615503	3
0	335	99.266768684474	4
0	342	100.19246955247	3
0	349	100.995594251944	4
0	377	112.358247355443	3
0	383	112.809928887278	4
0	426	124.235913432524	3
0	435	126.732077119652	4
0	446	128.689822051945	3
0	450	131.746282197243	2
0	454	132.053509168276	3
0	457	133.139778549154	4
0	458	133.665650477598	3
0	465	134.873774785302	4
0	532	157.443314306795	3
0	536	161.323501030281	4
0	554	164.197061794231	5
0	618	184.310976609259	4
0	626	185.935187301522	3
0	629	186.092641628943	4
0	645	190.23332730844	5
0	646	191.21260964215	4
0	655	193.676197757062	5
0	712	206.901688482792	4
0	716	207.423472488481	5
0	719	207.991376641961	6
0	733	211.627922013944	5
0	736	211.947749668966	6
0	745	215.893744255857	5
0	785	231.258263401131	4
0	791	232.786253089522	5
0	804	236.628198555284	6
0	838	249.615054960804	5
0	842	250.227572496208	6
0	863	256.607873136643	7
0	904	265.086111152891	6
0	910	266.563283015947	7
0	924	269.484812767914	8
0	987	284.144539588923	9
0	988	287.349193607893	8
0	990	287.90736424954	7
0	993	288.282349349433	8
0	1010	294.436823852691	9
0	1055	309.754450266324	8
0	1128	330.930706440569	9
0	1142	334.596743762547	8
0	1202	351.168509523092	9
0	1217	352.261240429398	8
0	1223	353.99670272636	9
0	1227	356.03199395132	8
0	1237	359.63444088171	9
0	1282	371.123632112107	10
0	1314	385.576372471053	9
0	1375	401.627998215301	8
0	1380	403.790572927585	7
0	1390	405.245495636364	8
0	1414	409.616473116828	7
0	1417	410.385712532966	8
0	1419	413.596749444473	7
0	1423	414.132407146791	8
0	1449	419.933104350478	9
0	1496	437.423475479375	8
0	1503	438.573367759572	9
0	1518	441.476058929156	8
0	1522	442.55612916568	9
0	1547	449.977568754863	8
0	1550	450.602735050807	9
0	1564	454.028879230297	10
0	1614	471.68387728932	9
0	1624	474.093746222686	8
0	1627	474.229066845493	9
0	1651	480.64028005184	10
0	1667	483.440353369949	9
0	1677	485.276121517364	10
0	1745	501.050869638037	11
0	1790	511.909456540722	10
0	1803	515.120086574171	11
0	1817	519.873395164523	10
0	1837	523.757280382356	11
0	1850	526.266618585513	10
0	1866	530.993438590573	9
0	1867	531.441234319284	8
0	1870	531.853857150968	9
0	1875	536.009828246531	10
0	1887	538.639751341109	11
0	1934	553.799829697926	10
0	1956	563.978358911499	11
0	2002	578.275959717827	10
0	2017	584.084104831483	11
0	2064	599.83471474667	10
0	2069	601.46909939516	11
0	2091	604.569413120558	10
0	2107	610.198151628349	11
0	2112	613.193536424536	10
0	2116	614.978156534114	9
0	2119	615.070222234219	10
0	2123	618.31018520112	11
0	2135	623.205978111338	10
0	2153	625.924186323948	9
0	2157	626.057454928186	10
0	2163	628.073054746034	11
0	2195	636.670403471027	12
0	2206	639.560638580313	11
0	2213	640.892030765011	12
0	2246	648.786613693859	13
0	2247	650.298688522975	12
0	2250	650.556233517069	13
0	2303	660.053572098999	14
0	2327	665.908686670035	13
0	2337	668.224137759335	14
0	2370	677.111065974103	13
0	2382	679.673341767389	14
0	2427	689.534751561299	13
0	2430	690.500503460874	14
0	2497	707.714696032558	15
0	2544	718.980873426107	14
0	2547	719.11608798744	15
0	2562	721.885007495648	14
0	2565	723.475219870631	13
0	2569	723.887159864275	14
0	2588	730.489911940939	13
0	2595	732.229935493466	14
0	2612	737.752059678187	13
0	2615	738.242534594092	14
0	2621	739.50758552613	15
0	2674	754.079836230342	16
0	2694	763.608108115356	15
0	2709	768.857621197018	14
0	2712	769.202913715935	15
0	2715	769.374452343308	16
0	2738	779.26026741185	15
0	2747	781.208626683837	16
0	2760	787.430647153173	15
0	2766	788.160561699551	16
0	2820	801.540218318128	17
0	2852	812.075378795722	16
0	2858	812.797935666286	17
0	2886	817.298993378705	18
0	2908	820.659491337389	17
0	2927	822.972735158065	18
0	2947	826.123775966816	17
0	2962	834.771075527775	18
0	2988	843.593258997615	17
0	2999	846.120360152141	18
0	3039	857.166252363126	17
0	3068	866.153551787271	16
0	3074	867.347930764079	17
0	3093	871.554897613777	16
0	3099	874.037625067117	17
0	3133	885.784960825841	18
0	3149	890.102482167278	17
0	3212	917.745974019033	16
0	3237	924.213798951384	17
0	3279	933.131933702723	16
0	3280	934.061827789581	15
0	3286	934.302272347198	16
0	3289	935.003317856524	17
0	3314	941.378209533847	16
0	3324	943.867487286705	17
0	3343	951.341443720109	16
0	3346	951.503102820162	17
0	3370	960.280311298439	16
0	3389	968.126252992876	17
0	3430	975.979559833674	18
0	3444	985.14173465146	17
0	3450	985.475232417902	18
0	3490	997.769218985945	17
0	3509	1005.014298657635	18
0	3519	1006.444018093398	17
0	3525	1008.733977271762	18
0	3537	1011.130962814532	19
0	3569	1022.731433648362	18
0	3593	1028.553282082484	19
0	3626	1037.049215937639	20
0	3643	1042.320889708277	19
0	3697	1056.994315314316	18
0	3712	1058.485375089805	19
0	3722	1062.412704555439	18
0	3725	1062.635443727736	19
0	3728	1063.083531696111	20
0	3751	1066.623059506134	19
0	3790	1075.546759442733	20
0	3817	1084.64179876454	19
0	3824	1085.976920945523	18
0	3827	1086.20387676082	19
0	3830	1089.782378486657	20
0	3845	1097.507867605866	19
0	3855	1099.336357566853	20
0	3886	1107.56977247643	19
0	3889	1107.704822125882	20
0	3924	1120.55834083872	21
0	3925	1120.586802201956	20
0	3928	1121.17639321586	21
0	3958	1132.161470396752	20
0	3974	1136.806282595337	19
0	3981	1138.703305634572	20
0	4001	1145.89068896978	19
0	4017	1150.859656738554	20
0	4054	1160.608602232624	21
0	4086	1171.729500971415	20
0	4110	1176.86025723228	21
0	4148	1186.034579573968	22
0	4186	1195.84876773539	21
0	4192	1197.590702622471	22
0	4202	1203.855476920999	21
0	4205	1205.276406269046	22
0	4218	1207.27489815304	23
0	4309	1233.749827184064	22
0	4319	1235.418808843334	23
0	4347	1242.802282560779	22
0	4354	1243.964437964905	23
0	4360	1246.765220309791	24
0	4371	1251.827977638941	23
0	4380	1257.947700017657	22
0	4383	1259.234132681679	23
0	4387	1259.803484161707	22
0	4390	1260.262298168778	23
0	4391	1260.957213915456	22
0	4397	1263.323437464989	21
0	4401	1264.315054919524	22
0	4405	1265.804415346697	21
0	4409	1266.444880731964	22
0	4410	1267.832324147224	21
0	4416	1268.43201158822	22
0	4481	1285.655372129065	23
0	4493	1289.962599476898	22
0	4508	1293.771816038674	23
0	4545	1310.243003475907	22
0	4551	1314.396476496795	21
0	4560	1316.433597675747	22
0	4591	1325.463013048911	23
0	4616	1328.871070165892	22
0	4625	1329.238267924067	23
0	4665	1341.985411304399	22
0	4666	1342.623679382378	21
0	4670	1345.326678949129	22
0	4677	1349.29695340013	23
0	4757	1363.596301425528	22
0	4760	1363.851974814995	23
0	4775	1368.656271049751	22
0	4789	1373.641126677639	23
0	4798	1375.182792184673	24
0	4865	1390.099915394878	23
0	4869	1392.736282252846	24
0	4880	1397.693500537733	23
0	4883	1398.210872785825	24
0	4922	1412.961761124792	23
0	4925	1415.315795607437	24
0	4946	1421.7206372948	23
0	4949	1421.924318274162	24
0	4956	1423.666322953172	25
0	4987	1426.918372343337	26
0	5011	1429.484663594752	25
0	5017	1430.917700926572	26
0	5053	1441.718241286664	27
0	5077	1446.051610894677	26
0	5080	1447.22457715976	27
0	5091	1449.767289072751	26
0	5099	1452.449447860357	27
0	5115	1455.862726956714	26
0	5124	1459.924882057331	27
0	5139	1463.786779616903	26
0	5194	1477.73550321926	27
0	5229	1484.483384872054	26
0	5232	1484.678416943838	27
0	5273	1498.438473553306	26
0	5280	1501.139441863458	27
0	5313	1513.19775899325	26
0	5318	1514.899715502723	25
0	5328	1518.403677945196	26
0	5397	1534.768966034048	27
0	5401	1535.735509911616	26
0	5404	1537.74316341383	27
0	5433	1555.138181257416	26
0	5446	1558.67991167593	27
0	5466	1562.610775748397	26
0	5486	1568.592004182316	27
0	5504	1572.487797805424	28
0	5538	1583.388202758182	27
0	5544	1585.377241638631	28
0	5572	1592.199842177605	29
0	5621	1608.207312577294	28
0	5632	1612.151911297377	27
0	5635	1612.757088932085	28
0	5638	1613.034396461015	29
0	5670	1619.510124527228	28
0	5687	1624.133382761208	29
0	5737	1639.883785492043	30
0	5777	1645.780175038775	29
0	5781	1646.216660808474	30
0	5807	1651.770987076883	31
0	5836	1656.455112824154	32
0	5860	1663.847438547626	31
0	5873	1666.412942934711	32
0	5902	1675.25211642125	31
0	5919	1677.546200382693	32
0	5920	1678.612974514279	31
0	5923	1678.953130927969	32
0	5938	1681.582822196591	33
0	5987	1696.600886649261	32
0	5992	1696.710006643338	31
0	5996	1697.903047733886	32
0	6033	1712.136661042003	31
0	6036	1713.304307855845	32
0	6074	1723.962094266334	31
0	6078	1724.646031082567	32
0	6093	1729.173999155459	31
0	6109	1732.092104049032	32
0	6144	1742.439969606691	33
0	6167	1749.725916268028	32
0	6171	1750.315852672071	33
0	6194	1754.427932001957	34
0	6202	1760.358936943558	33
0	6215	1763.734669620209	34
0	6271	1781.136476529996	33
0	6275	1786.084789796432	32
0	6278	1786.764092268159	33
0	6284	1789.224410695489	34
0	6293	1790.519212130568	35
0	6303	1792.204970645223	34
0	6306	1793.033539702264	35
0	6388	1816.329279672909	34
0	6391	1816.522861600457	35
0	6487	1845.635513248089	34
0	6490	1846.079663910786	35
0	6513	1853.471877497341	36
0	6587	1874.21732218315	35
0	6593	1874.70450965811	36
0	6612	1880.000402337043	37
0	6660	1894.500397135883	36
0	6686	1903.152370263099	37
0	6702	1908.405880649583	36
0	6705	1909.129499486577	37
0	6717	1912.22829635326	36
0	6721	1917.683166477978	35
0	6724	1918.298692849656	36
0	6740	1922.248351008965	37
0	6765	1926.272283496554	36
0	6777	1930.4200006073	37
0	6781	1933.209287559913	36
0	6784	1933.306687994302	37
0	6850	1949.02745900286	38
0	6855	1951.59568384803	37
0	6876	1960.18008415778	38
0	6889	1970.366895589393	37
0	6903	1973.078565726056	38
0	6928	1980.530773996861	37
0	6931	1981.355891035096	38
0	6941	1983.762742584328	37
0	6950	1985.680231258776	38
0	6963	1991.15202964376	39
0	7027	2006.374824142507	40
0	7050	2011.256246897104	39
0	7053	2011.330481452313	40
0	7118	2028.964078994538	41
0	7128	2031.934324047497	40
0	7144	2034.718784690249	41
0	7163	2039.333559385682	42
0	7195	2050.802639360695	41
0	7221	2058.500206830462	42
0	7286	2079.926312503979	41
0	7287	2081.099381025179	40
0	7292	2082.421074225604	41
0	7299	2086.805510570078	42
0	7322	2092.568998569721	43
0	7338	2096.463766916629	42
0	7358	2098.425961718264	43
0	7385	2102.801616911567	42
0	7395	2106.236472822671	43
0	7459	2122.410282134154	42
0	7468	2124.18714990056	43
0	7493	2130.192175631312	44
0	7528	2136.912548636112	43
0	7573	2150.2202589524	44
0	7577	2151.585256920904	43
0	7589	2154.115309254867	44
0	7650	2176.443833591649	43
0	7711	2198.703417007328	42
0	7714	2198.721671357358	43
0	7764	2213.797992741712	44
0	7798	2227.89105454215	43
0	7801	2228.790973594309	44
0	7840	2240.626893135988	43
0	7846	2242.893790638265	42
0	7849	2243.13401378082	43
0	7870	2246.067252854879	44
0	7871	2246.636149707664	43
0	7885	2248.840409956356	42
0	7889	2252.2510689881	43
0	7926	2265.491626745095	42
0	7927	2265.950123938714	41
0	7929	2268.297638509355	40
0	7935	2268.913510075194	41
0	7941	2269.255145426336	42
0	7948	2270.329496572416	43
0	7991	2288.211069559598	42
0	8021	2297.062002796497	43
0	8062	2308.846944135141	44
0	8068	2310.41788027209	43
0	8080	2312.876496608489	44
0	8153	2326.944430634916	43
0	8189	2342.331311399121	44
0	8212	2349.530037599565	43
0	8215	2349.995243874889	44
0	8243	2354.899355504195	43
0	8253	2357.500511564316	44
0	8273	2362.046551517854	45
0	8288	2366.943447196641	44
0	8293	2370.997871744322	43
0	8310	2375.625900392601	44
0	8332	2382.999725757981	43
0	8341	2385.027002770686	44
0	8388	2400.800488328358	43
0	8420	2413.507162105476	42
0	8424	2415.044770145779	43
0	8467	2425.833206575446	44
0	8495	2432.84857961998	43
0	8520	2440.435006986056	44
0	8594	2458.229066763077	43
0	8597	2460.339969782905	44
0	8622	2470.282752771498	43
0	8668	2490.861337635066	44
0	8686	2493.819969136567	43
0	8700	2497.338117112642	42
0	8704	2498.456390009189	43
0	8716	2499.166958347818	44
0	8755	2505.829688796064	45
0	8777	2511.269337365131	44
0	8780	2512.420223539734	45
0	8798	2516.66200337375	44
0	8804	2517.041806765759	45
0	8809	2520.351115426748	44
0	8813	2521.816845618388	45
0	8828	2527.095236760361	46
0	8850	2535.880486037335	45
0	8864	2543.551928987688	46
0	8879	2548.235251870431	47
0	8924	2564.19316451943	46
0	8945	2577.999842389967	45
0	8961	2584.100584597061	46
0	8982	2591.592285326852	45
0	8985	2593.413656426323	46
0	9014	2600.155692917308	47
0	9065	2611.295428577188	46
0	9072	2612.016587854426	47
0	9073	2612.719091710099	46
0	9085	2617.40212152924	47
0	9105	2621.464982685001	48
0	9144	2632.010348357479	49
0	9146	2632.538195362393	48
0	9151	2634.828546339284	47
0	9161	2636.073257816102	48
0	9201	2653.994185787657	47
0	9211	2657.608901126216	48
0	9252	2672.223999883026	47
0	9258	2672.712126325787	48
0	9296	2679.666555159314	49
0	9311	2687.569606863153	48
0	9352	2702.371400212747	47
0	9353	2702.796732610886	46
0	9360	2703.87816596572	47
0	9374	2709.892455447218	48
0	9449	2729.176959394547	49
0	9450	2730.16222972813	48
0	9453	2730.63881671115	49
0	9501	2742.665456555652	48
0	9504	2742.87688337014	49
0	9549	2753.39623229505	50
0	9583	2761.187933368844	51
0	9606	2766.010235388334	50
0	9648	2780.85574943933	49
0	9662	2787.743421594159	50
0	9673	2791.575879839526	49
0	9693	2798.487900002957	48
0	9696	2798.952311839667	49
0	9702	2803.079785210802	48
0	9708	2803.493255389229	49
0	9711	2804.85400374052	50
0	9718	2807.822881214948	49
0	9729	2811.148866497338	50
0	9764	2817.169205767597	49
0	9767	2817.632326619392	50
0	9770	2819.698413148127	51
0	9828	2831.327895215866	52
0	9844	2837.343862299106	51
0	9848	2839.239230333452	50
0	9854	2842.580072953764	51
0	9925	2866.992614863973	50
0	9936	2872.027292574926	49
0	9951	2873.297977112592	50
0	10002	2886.181124864434	51
0	10017	2895.029078469384	50
0	10057	2902.576412706845	51
0	10072	2907.293096787281	50
0	10105	2920.552803095136	51
0	10137	2929.939181299648	50
0	10149	2933.269735875967	51
0	10181	2946.300220968802	50
0	10187	2947.027457286496	51
0	10222	2954.304620911532	50
0	10228	2955.656194500222	51
0	10231	2956.890801126365	52
0	10307	2981.28175408313	51
0	10313	2981.588104808634	52
0	10354	2995.318939121402	51
0	10357	2996.497802730716	52
0	10399	3009.989550251795	53
0	10423	3015.627557986237	52
0	10429	3016.324442578971	53
0	10441	3018.023514231569	54
0	10445	3018.382590431225	53
0	10448	3018.828448276941	54
0	10458	3021.268186540447	53
0	10464	3022.268822103051	54
0	10487	3026.963919168036	53
0	10514	3036.427140399849	54
0	10516	3037.878817323775	53
0	10531	3042.598687195227	54
0	10552	3051.659394128931	53
0	10583	3063.031830267214	54
0	10612	3069.715058162758	53
0	10615	3069.797920724818	54
0	10638	3077.587894354459	53
0	10653	3082.308891619698	54
0	10655	3082.912121630505	53
0	10658	3083.899101144886	54
0	10670	3090.87269897439	53
0	10676	3091.903690475037	54
0	10708	3101.48520680757	53
0	10714	3102.221457728462	54
0	10729	3106.056128142445	53
0	10784	3121.867485917404	52
0	10788	3123.302120475532	53
0	10809	3132.144085402486	52
0	10812	3132.483491555933	53
0	10825	3137.526097857753	54
0	10857	3149.896728219118	53
0	10860	3149.976378175268	54
0	10892	3163.786703622183	53
0	10898	3164.322686105665	54
0	10916	3168.512116445063	55
0	10973	3183.039359633865	54
0	11016	3199.88939866515	53
0	11018	3200.184043126571	52
0	11024	3201.647648156724	53
0	11049	3210.286179656224	54
0	11079	3215.434189595146	55
0	11114	3224.66755429129	54
0	11117	3225.131077435232	55
0	11157	3231.549629636935	56
0	11158	3231.826673725516	55
0	11223	3254.660738551025	56
0	11238	3259.499769621838	55
0	11254	3265.714602850122	56
0	11323	3282.63895177887	55
0	11430	3312.348207456508	54
0	11448	3318.620040003007	55
0	11477	3323.247954023052	54
0	11493	3328.428216124664	55
0	11560	3350.74179276959	56
0	11567	3352.575985442178	55
0	11580	3354.905558670147	56
0	11589	3358.989813039389	55
0	11599	3361.5904417446	54
0	11600	3362.418103356871	53
0	11604	3363.925014035018	54
0	11607	3364.129965229715	55
0	11613	3364.701938920649	56
0	11687	3390.827813215202	55
0	11739	3409.08939354784	56
0	11758	3415.175687450587	55
0	11784	3421.125764666449	54
0	11790	3423.102807143118	55
0	11794	3425.203536745496	54
0	11800	3425.472184983652	55
0	11806	3427.535936452735	56
0	11846	3444.570952204108	55
0	11897	3456.253524667301	54
0	11903	3457.041647515687	55
0	11906	3458.924208285664	54
0	11909	3458.956856853898	55
0	11921	3459.31704607706	56
0	11992	3478.719979360258	55
0	12016	3482.204678020766	54
0	12019	3482.557404787441	55
0	12022	3483.240135834234	56
0	12072	3497.09857366006	57
0	12097	3505.934157828353	56
0	12130	3512.26340480632	57
0	12149	3516.18263835939	56
0	12162	3519.688885850724	57
0	12189	3530.18551696768	56
0	12202	3532.255982380572	57
0	12240	3541.239146947547	58
0	12250	3543.065498203887	57
0	12259	3543.710680581096	58
0	12294	3551.209306399766	59
0	12309	3557.306323176661	58
0	12327	3560.864914122486	59
0	12380	3571.760763305799	60
0	12386	3572.998779673504	59
0	12396	3574.149496010168	60
0	12401	3575.004618702057	59
0	12413	3578.326432091226	60
0	12455	3589.830572464552	61
0	12476	3596.052331087261	60
0	12483	3597.424394995396	61
0	12515	3608.484923118377	62
0	12531	3612.887744921416	61
0	12537	3613.359293107723	62
0	12588	3624.610888549082	61
0	12620	3640.047396506483	62
0	12621	3640.156358422796	61
0	12652	3648.434481702228	60
0	12662	3651.031428985646	61
0	12715	3671.42536922082	60
0	12747	3681.627096053283	59
0	12758	3683.534866593846	60
0	12798	3692.955836322042	61
0	12799	3693.043561140773	60
0	12843	3716.87466627575	59
0	12872	3726.954177652102	60
0	12913	3740.165976740044	59
0	12917	3743.467502561435	60
0	13009	3767.584149692436	59
0	13021	3769.178574634197	60
0	13067	3782.265464744909	59
0	13070	3782.5966671074	60
0	13104	3790.456107781971	61
0	13119	3797.680501074525	60
0	13129	3799.953457667964	61
0	13161	3808.938280349913	62
0	13185	3813.599227412801	63
0	13202	3815.720042901905	62
0	13209	3817.786672029806	63
0	13267	3839.003918785908	64
0	13284	3844.361552163647	63
0	13287	3845.181282895331	64
0	13306	3851.042261013559	63
0	13377	3867.746606777463	64
0	13386	3872.943123566361	63
0	13412	3877.206206799342	62
0	13428	3882.152171828587	63
0	13469	3894.588744084821	62
0	13477	3899.028557179439	63
0	13483	3900.119957989691	62
0	13486	3901.956710799417	63
0	13501	3905.994829280721	64
0	13556	3921.949686292652	65
0	13557	3922.212130706213	64
0	13567	3923.681115807599	65
0	13581	3925.807418037011	64
0	13607	3933.244308096177	63
0	13613	3934.124938007044	64
0	13616	3934.895269557225	65
0	13628	3938.75935853913	64
0	13634	3939.985558783716	65
0	13676	3952.785142556987	64
0	13699	3956.494700547547	65
0	13704	3958.106760121289	64
0	13717	3961.670040062177	65
0	13772	3973.351356003955	66
0	13796	3982.798743854609	65
0	13804	3984.704475905154	64
0	13808	3985.246372903209	65
0	13830	3991.586072646709	64
0	13833	3991.843935917731	65
0	13842	3994.141370568313	66
0	13871	4004.77961730958	65
0	13884	4011.2387285663	66
0	13933	4027.136083857242	65
0	13943	4030.759056299904	66
0	13944	4031.259683105964	65
0	13960	4033.624911786983	66
0	14009	4049.507340475078	65
0	14050	4062.533494215352	66
0	14054	4063.185063125984	65
0	14057	4063.73086094472	66
0	14081	4070.498283679973	67
0	14116	4080.989113458538	66
0	14147	4086.039168638588	67
0	14200	4100.449718583877	68
0	14256	4110.64126997418	67
0	14257	4110.920279076548	66
0	14260	4111.288651826389	67
0	14262	4112.280947970058	66
0	14268	4112.797574961442	67
0	14297	4121.764614819618	68
0	14335	4128.916864678781	69
0	14368	4140.496807276101	68
0	14383	4143.59832001405	67
0	14389	4145.604051198531	68
0	14413	4154.048647610954	67
0	14419	4154.398003337594	68
0	14436	4157.391735721987	69
0	14454	4162.497430986801	68
0	14457	4162.733912751894	69
0	14521	4186.29515222513	68
0	14522	4186.673312383327	67
0	14537	4192.799146294329	68
0	14575	4202.166880501307	69
0	14604	4209.60758675109	70
0	14628	4215.260015679565	69
0	14638	4216.428674292192	70
0	14646	4219.152888211469	69
0	14654	4221.16572175834	70
0	14669	4223.425310228742	71
0	14673	4223.883769377488	70
0	14676	4223.953991470192	71
0	14699	4229.365720850173	72
0	14749	4245.33710361215	73
0	14750	4245.356481427275	72
0	14754	4245.775172373896	71
0	14760	4248.916422453092	72
0	14767	4250.252167511815	73
0	14815	4260.438669076613	74
0	14861	4274.954117945153	73
0	14865	4277.99403938405	72
0	14871	4279.643218391974	73
0	14916	4290.947829950066	74
0	14967	4303.624597463949	73
0	14976	4306.245703370529	74
0	14998	4309.258060698791	75
0	15022	4320.977721493802	74
0	15062	4333.004645124775	73
0	15071	4337.460297764523	74
0	15109	4346.38132544543	75
0	15158	4359.803799243572	76
0	15159	4359.833451380618	75
0	15162	4360.924894264812	76
0	15212	4378.342340067882	75
0	15221	4380.772625345282	76
0	15274	4395.110136978061	77
0	15275	4395.329431339043	76
0	15298	4403.897044493392	75
0	15301	4404.061674896682	76
0	15317	4411.472943765661	77
0	15347	4416.251117126788	76
0	15349	4418.783037709264	75
0	15354	4420.252905650465	76
0	15362	4422.8930167389	75
0	15365	4423.28235100483	76
0	15378	4428.982458357948	77
0	15385	4430.624345996507	76
0	15386	4431.018160133927	75
0	15391	4433.567078295088	76
0	15403	4436.962615611978	75
0	15407	4438.869473649357	76
0	15422	4443.691805276397	77
0	15494	4466.67481938932	76
0	15497	4467.821759298757	77
0	15509	4471.364362811448	78
0	15580	4489.286893566239	79
0	15595	4494.782857477424	78
0	15598	4497.319195633831	79
0	15612	4501.037496535155	78
0	15615	4501.1297411547	79
0	15668	4513.515643244977	78
0	15671	4514.089022817806	79
0	15697	4520.928744045623	78
0	15701	4524.967928744499	77
0	15704	4525.3022764381	78
0	15717	4529.452602978948	79
0	15723	4529.98122979778	80
0	15735	4535.214024017989	79
0	15742	4538.834186648567	80
0	15780	4553.559770090346	79
0	15793	4558.007784789851	80
0	15823	4565.226220279034	79
0	15844	4572.302000886999	80
0	15896	4588.741853966879	81
0	15897	4589.44027946619	80
0	15930	4601.796037775315	81
0	15938	4607.535677805983	80
0	15939	4607.66135200828	79
0	15946	4608.00135625675	80
0	15952	4609.925722503797	81
0	15973	4616.854145462993	80
0	16023	4633.198507416524	79
0	16030	4636.30984544698	80
0	16039	4638.207500272591	81
0	16068	4646.173909273609	80
0	16074	4646.548847773847	81
0	16090	4653.70872042982	80
0	16142	4670.986837381514	79
0	16145	4671.931303066824	80
0	16223	4696.143864854835	79
0	16227	4698.471866194321	80
0	16282	4712.36974174454	81
0	16309	4720.162437310031	82
0	16321	4726.000518683235	81
0	16361	4741.264338031526	82
0	16398	4751.439186689291	83
0	16407	4753.159089835384	82
0	16441	4764.529262732	83
0	16450	4767.21648464503	82
0	16508	4786.609535414857	81
0	16518	4789.762713232587	82
0	16542	4795.690135962645	81
0	16543	4796.162956223542	80
0	16553	4799.736277657469	81
0	16556	4800.711228198372	82
0	16586	4809.532498216728	83
0	16636	4821.733697474422	82
0	16660	4830.374121138001	83
0	16685	4841.25644862117	82
0	16707	4848.520102919519	83
0	16714	4849.989348913182	82
0	16791	4874.605174587525	83
0	16804	4877.470150050723	82
0	16812	4879.169622132933	83
0	16851	4886.482423553197	84
0	16862	4890.545594184895	83
0	16872	4892.11431350518	84
0	16904	4901.151533159869	83
0	16907	4901.988156698138	84
0	16908	4902.049817382537	83
0	16912	4902.671297348016	84
0	16944	4910.238488402468	85
0	16977	4921.948363718844	84
0	16980	4922.02810537311	85
0	16988	4927.005917360879	84
0	16991	4928.41072367541	85
0	17027	4932.858324959565	84
0	17032	4934.541542061932	83
0	17038	4936.662413354188	84
0	17051	4938.227772412915	85
0	17060	4938.607902593339	86
0	17116	4955.108425787076	87
0	17137	4960.257582297564	86
0	17140	4961.687468980555	87
0	17144	4962.566656900509	86
0	17151	4964.819262871295	87
0	17192	4979.306425508337	86
0	17195	4980.649181106424	87
0	17256	5004.266413609165	86
0	17263	5006.272153405673	87
0	17284	5012.500492579208	86
0	17292	5014.592012556039	87
0	17300	5016.711274563364	86
0	17306	5018.071174272227	87
0	17397	5040.827962034498	86
0	17402	5042.141632102764	87
0	17450	5057.905541612367	86
0	17453	5060.368255026215	87
0	17484	5067.148894404366	86
0	17491	5067.517069308924	87
0	17505	5069.195941124689	86
0	17508	5069.401622057544	87
0	17511	5069.446544388085	88
0	17547	5078.459111625253	89
0	17582	5088.633322360454	88
0	17589	5091.268095239347	87
0	17599	5092.740955679919	88
0	17605	5096.483631237833	89
0	17618	5100.745319265617	88
0	17645	5107.335556602786	89
0	17699	5122.245169369156	90
0	17739	5130.507259839627	89
0	17741	5131.672960128641	88
0	17753	5134.84776239915	89
0	17756	5135.954633047353	90
0	17789	5148.247475984496	89
0	17792	5148.553624087825	90
0	17853	5166.42472741874	91
0	17878	5170.664563976838	90
0	17885	5172.314726353853	91
0	17962	5197.864170923628	90
0	17964	5200.970205798642	89
0	17970	5202.304478758905	90
0	17973	5202.717629449423	91
0	18015	5213.504262281698	90
0	18021	5217.814134179171	91
0	18043	5224.408086360643	92
0	18057	5230.359748999943	91
0	18148	5254.445627029104	92
0	18158	5256.505890063386	91
0	18161	5256.665841342439	92
0	18224	5276.909803923663	93
0	18232	5280.809438275636	92
0	18275	5294.335987651229	93
0	18279	5296.188463164647	92
0	18285	5296.848902216499	93
0	18298	5299.09414846953	92
0	18305	5300.296153594304	93
0	18327	5303.81091307171	92
0	18333	5304.458125123794	93
0	18339	5306.103873839788	94
0	18396	5321.177986312302	95
0	18397	5321.514561725623	94
0	18400	5323.977009396791	95
0	18407	5325.629221830496	94
0	18468	5343.346777414584	93
0	18472	5344.938938543273	94
0	18490	5349.835777619483	95
0	18525	5361.603313105865	94
0	18526	5361.777920616345	93
0	18532	5364.976747898658	94
0	18570	5377.686010301634	93
0	18573	5377.929080478914	94
0	18596	5384.950365614779	95
0	18658	5404.897103845934	94
0	18672	5410.163339385314	95
0	18697	5413.802187654848	96
0	18729	5426.160818158732	95
0	18733	5427.518808227806	96
0	18790	5447.337553831051	95
0	18851	5459.499041792714	94
0	18879	5466.028951571473	95
0	18886	5467.465180426111	94
0	18889	5470.064954333027	95
0	18930	5487.308819329565	96
0	18964	5497.254646740078	95
0	18980	5500.557271490202	96
0	18992	5504.26827046889	95
0	18998	5504.622660407634	96
0	19019	5511.392828720773	95
0	19022	5511.697010011762	96
0	19050	5518.440873809112	97
0	19120	5538.311690466719	96
0	19131	5542.426617146648	97
0	19151	5552.154567716332	96
0	19172	5553.570173754265	97
0	19200	5559.206473350932	98
0	19239	5573.885388011495	97
0	19242	5575.238768620353	98
0	19278	5582.82223595449	99
0	19323	5600.067465711732	98
0	19326	5601.044850418974	99
0	19357	5608.31894207127	100
0	19389	5615.242145664768	99
0	19433	5639.332217891105	98
0	19508	5659.447486679546	99
0	19532	5667.494291027803	98
0	19555	5671.638198433674	97
0	19561	5671.912410371921	98
0	19572	5677.376971974942	99
0	19599	5679.75136843028	100
0	19661	5699.235485602955	99
0	19673	5700.257746336871	100
0	19674	5700.293727004465	99
0	19677	5700.405927191835	100
0	19689	5705.84821356388	99
0	19697	5707.373831541363	100
0	19725	5713.967603817777	99
0	19744	5720.628008506503	100
0	19753	5723.095146420268	101
0	19787	5729.957757647457	100
0	19794	5731.66511498418	99
0	19797	5731.924139224746	100
0	19811	5740.729875232671	101
0	19853	5754.338048261884	100
0	19870	5762.694974838647	101
0	19898	5769.545397977686	102
0	19904	5773.024823686609	101
0	19944	5786.200755853889	102
0	19945	5786.470858728999	101
0	19949	5787.685671286512	102
0	19960	5791.021466308476	101
0	19976	5796.198903080928	102
0	20033	5817.186804077294	101
0	20034	5817.627870766232	100
0	20037	5817.946104934833	101
0	20043	5820.545269212335	102
0	20058	5822.615170402964	101
0	20061	5822.901593156221	102
0	20116	5840.342562489136	103
0	20139	5849.313189820473	102
0	20143	5850.546868856112	101
0	20155	5854.928797753757	102
0	20244	5879.704507294667	101
0	20253	5881.391636736357	102
0	20273	5885.801240445139	103
0	20329	5896.507190452022	104
0	20377	5907.160670672155	103
0	20384	5908.56230479027	104
0	20397	5915.615269836007	103
0	20410	5918.454782424141	104
0	20452	5934.880882197291	103
0	20464	5939.514564986655	104
0	20523	5960.403585743798	103
0	20539	5964.914392075436	104
0	20550	5967.589492038791	103
0	20553	5967.723512129361	104
0	20559	5968.153969624802	105
0	20586	5977.850181590813	104
0	20600	5982.086433534499	105
0	20622	5988.819174758176	104
0	20633	5992.538493499197	103
0	20678	6003.691125956698	104
0	20747	6021.081458146659	103
0	20779	6032.482613661105	104
0	20805	6039.808881716135	105
0	20819	6047.035737886487	104
0	20857	6057.149510905158	103
0	20870	6060.787586836089	104
0	20894	6068.190862394412	103
0	20908	6070.633829304052	104
0	20954	6085.48198308564	103
0	20959	6086.639676257953	104
0	21005	6096.906986923173	103
0	21027	6099.864137361651	104
0	21057	6107.114523757558	105
0	21099	6118.559633060851	104
0	21109	6120.600541365377	105
0	21111	6122.114465597169	104
0	21114	6122.91505472529	105
0	21143	6129.475927252426	106
0	21173	6140.071906962159	105
0	21190	6145.038331511432	104
0	21196	6146.904495240214	105
0	21229	6158.481789548476	104
0	21235	6160.720329154712	105
0	21261	6167.000246715711	106
0	21301	6172.85137906532	105
0	21315	6176.416194841623	106
0	21321	6179.04741446752	105
0	21328	6179.965128192487	106
0	21329	6179.994506913629	105
0	21333	6180.911319909899	106
0	21374	6195.735959122311	105
0	21388	6199.549608977741	106
0	21443	6212.482823634457	107
0	21464	6217.277551874016	106
0	21481	6221.979922497564	107
0	21482	6222.678827182585	106
0	21488	6223.02152959335	107
0	21557	6240.757010450859	106
0	21561	6241.822165544723	107
0	21601	6259.880453513184	108
0	21609	6262.057039320379	107
0	21615	6262.756667955835	108
0	21705	6287.807872952691	107
0	21708	6288.25055612976	108
0	21768	6309.535137951283	107
0	21793	6315.952538623382	108
0	21831	6324.390033784072	109
0	21839	6326.7939321904	108
0	21842	6328.09923477599	109
0	21856	6332.066057589596	108
0	21869	6336.246887449184	109
0	21879	6338.443460379207	108
0	21882	6338.949162533039	109
0	21909	6346.097059903654	110
0	21925	6354.292318515524	109
0	21931	6356.91694003004	110
0	21933	6357.606952358526	109
0	21939	6358.625672179642	110
0	21985	6370.346677759185	111
0	22027	6378.588098921633	110
0	22044	6383.626860057872	111
0	22048	6384.09144771796	110
0	22060	6385.904066001728	111
0	22076	6390.9216709245	112
0	22078	6393.282045598542	111
0	22087	6395.718926957054	112
0	22182	6422.669906287096	111
0	22230	6435.202223054073	110
0	22235	6436.590192430364	111
0	22254	6443.311329778261	112
0	22271	6449.823522026213	111
0	22304	6457.257092443835	110
0	22307	6457.296023341526	111
0	22367	6471.557436364124	112
0	22387	6477.117185225797	111
0	22404	6485.561112975108	110
0	22421	6489.175622380724	111
0	22434	6491.695335195443	110
0	22441	6492.500583795667	111
0	22450	6494.596464745513	112
0	22478	6497.999963043517	113
0	22544	6514.783331167295	114
0	22555	6519.543274578134	113
0	22561	6522.558197182474	114
0	22573	6526.85176282973	113
0	22580	6529.989833419026	114
0	22581	6530.220157055094	113
0	22585	6531.852862704334	114
0	22651	6547.196908956088	115
0	22653	6547.545762206376	114
0	22698	6558.571102292966	115
0	22725	6562.967483519094	116
0	22755	6573.123574534536	115
0	22761	6573.776106733162	116
0	22770	6574.935133786493	117
0	22840	6593.318975999706	116
0	22841	6598.405475662567	115
0	22844	6600.112905600138	116
0	22847	6600.293358656411	117
0	22872	6608.139178130786	116
0	22873	6608.288773231011	115
0	22877	6609.396569729704	116
0	22880	6609.700731434834	117
0	22892	6612.043297604369	118
0	22904	6619.430082723269	117
0	22914	6622.298044512818	118
0	22980	6643.927468943407	117
0	23069	6670.142419452962	116
0	23079	6673.799314562874	117
0	23138	6691.494640864686	118
0	23152	6695.961462199956	117
0	23158	6697.589679517047	118
0	23211	6708.827335563456	119
0	23222	6714.815618501552	118
0	23251	6721.733669015302	117
0	23260	6726.418547453216	116
0	23267	6730.505203389005	117
0	23276	6733.122840686614	118
0	23321	6744.006194658941	117
0	23328	6747.78127917147	118
0	23359	6757.76694519978	119
0	23390	6770.068586461187	118
0	23415	6777.334122100881	119
0	23452	6783.688799925091	118
0	23456	6784.060235845385	119
0	23460	6784.800248717157	118
0	23463	6786.328689832433	119
0	23469	6788.845168790966	120
0	23539	6812.312827217707	119
0	23544	6813.567950928783	120
0	23576	6825.172618573716	121
0	23609	6835.139723141176	120
0	23638	6845.189710448338	121
0	23687	6854.598478464723	120
0	23690	6855.777724201706	121
0	23743	6866.817592278909	122
0	23745	6868.489726416699	121
0	23750	6875.460105400597	120
0	23751	6876.213700037919	119
0	23791	6891.785574793885	118
0	23801	6894.731769977208	119
0	23807	6894.852015325372	120
0	23848	6908.17239919859	119
0	23852	6908.981891243873	120
0	23864	6911.900005231843	121
0	23893	6923.307222616401	120
0	23897	6924.239597800202	121
0	23922	6930.206654128313	120
0	23925	6930.23834283376	121
0	23949	6940.368538585409	120
0	23966	6943.208512960726	121
0	24049	6967.963355942047	120
0	24052	6968.104595746834	121
0	24055	6969.223436279834	120
0	24059	6970.084164484715	119
0	24071	6973.48923522572	120
0	24081	6976.648113350007	121
0	24095	6980.64738525248	120
0	24103	6981.516371238495	119
0	24106	6982.502106108917	120
0	24109	6983.309988188734	121
0	24146	6989.310892483424	120
0	24149	6989.443190985764	121
0	24166	6992.914691894924	120
0	24173	6996.132631366362	121
0	24201	7005.01148124471	120
0	24204	7005.036847849639	121
0	24210	7006.801446012069	122
0	24241	7013.896727641955	121
0	24247	7016.579724608804	120
0	24257	7018.819293457242	121
0	24274	7026.223084028925	120
0	24277	7027.2470346492	121
0	24286	7028.057988539727	122
0	24309	7031.572914823295	121
0	24322	7034.351410942302	122
0	24326	7034.833777189067	121
0	24329	7035.906909251487	122
0	24389	7049.538717113671	123
0	24443	7064.704199127571	122
0	24449	7066.263394520769	123
0	24492	7084.464775014594	124
0	24507	7090.463376528637	123
0	24510	7091.052857139791	124
0	24582	7112.853819940479	123
0	24583	7113.195245621421	122
0	24586	7114.968145414933	123
0	24592	7115.456958298257	124
0	24637	7128.007794687319	123
0	24638	7128.656460987173	122
0	24652	7136.47223524579	123
0	24663	7140.155407577491	124
0	24680	7143.812844792488	123
0	24683	7144.61551071504	124
0	24700	7153.363677721999	123
0	24703	7153.859895829381	124
0	24737	7162.634112470002	125
0	24788	7178.321923257412	124
0	24820	7191.589826042135	125
0	24860	7203.402200841401	124
0	24866	7204.870161089148	125
0	24887	7209.18525290284	124
0	24890	7209.673745526443	125
0	24949	7216.948485259233	126
0	24998	7229.501704924154	125
0	25049	7239.456449972137	126
0	25129	7258.398482406617	125
0	25133	7258.953367169785	126
0	25198	7278.698290104806	125
0	25206	7280.984611720005	126
0	25227	7289.156966096937	127
0	25237	7292.68902367787	126
0	25240	7293.017327327071	127
0	25279	7302.552310268745	128
0	25295	7309.431941811173	127
0	25301	7310.630254793071	128
0	25325	7316.288558215468	127
0	25349	7319.521426874475	126
0	25353	7321.455574161857	127
0	25370	7326.078543780968	128
0	25423	7342.965786244069	127
0	25433	7345.007818673276	128
0	25462	7356.116817269621	127
0	25487	7364.98883396141	128
0	25528	7374.855694379497	127
0	25531	7374.886365274258	128
0	25557	7377.569651198659	129
0	25575	7383.824111296716	128
0	25581	7384.840005889261	129
0	25600	7388.569242514881	130
0	25690	7411.995436848742	131
0	25691	7412.064911563825	130
0	25707	7419.44228686443	129
0	25710	7419.999716770043	130
0	25716	7421.616327360955	131
0	25751	7433.226804137317	130
0	25754	7433.994143588029	129
0	25760	7435.794073751053	130
0	25774	7438.075835845501	129
0	25780	7438.451718976593	130
0	25837	7456.0638221096	129
0	25853	7459.858356497848	130
0	25888	7469.569775078104	129
0	25891	7470.322306331857	130
0	25928	7479.187979749901	131
0	25994	7499.406584327054	130
0	25998	7500.515605920433	131
0	26020	7504.247716219573	132
0	26041	7508.393589487268	133
0	26067	7516.158408002706	132
0	26137	7535.043597206688	133
0	26141	7539.712278628236	132
0	26142	7540.43727766761	131
0	26145	7540.440091727147	132
0	26151	7541.567140986242	133
0	26170	7548.882947502866	132
0	26180	7552.039429307461	133
0	26192	7555.34031740371	132
0	26195	7555.881958544528	133
0	26202	7558.023154382212	132
0	26205	7558.529576840009	133
0	26218	7560.876825325159	134
0	26243	7564.721740666507	135
0	26245	7565.102140277861	134
0	26270	7569.211375796869	135
0	26287	7571.061983751462	134
0	26294	7572.290515680909	135
0	26370	7589.43811885142	136
0	26400	7597.969587410614	135
0	26404	7598.92518710489	136
0	26415	7601.533695415183	135
0	26433	7607.077388693441	136
0	26468	7619.514733911515	135
0	26471	7620.969940041228	136
0	26486	7626.681181258394	137
0	26517	7635.33685544386	136
0	26520	7635.52111198808	137
0	26541	7643.730278404141	136
0	26568	7656.52991573339	135
0	26579	7659.336654385651	136
0	26585	7663.817893938194	135
0	26595	7667.216978422556	136
0	26611	7672.202397168635	137
0	26625	7675.166281390493	136
0	26635	7680.419850594696	137
0	26693	7694.02830791858	136
0	26730	7707.598844721008	137
0	26754	7713.8468640661	138
0	26782	7722.590357585086	137
0	26825	7734.720850100826	136
0	26843	7741.812899667689	137
0	26849	7747.559294446958	136
0	26855	7748.097631932741	137
0	26856	7748.146028578958	136
0	26869	7749.591862954632	137
0	26870	7750.041869687373	136
0	26888	7754.036145599588	137
0	26906	7758.969700409821	136
0	26918	7763.69195207965	137
0	26953	7772.738586342323	138
0	26973	7779.542950797345	137
0	26982	7780.869117403434	138
0	27041	7796.576442849292	137
0	27047	7797.348435024289	138
0	27082	7810.06588520138	139
0	27107	7819.779721431162	138
0	27134	7827.004403919292	139
0	27203	7843.465477853887	138
0	27235	7847.712738700169	139
0	27239	7848.288659954303	138
0	27245	7850.721252648837	139
0	27286	7860.711396542411	140
0	27341	7874.204276793822	139
0	27344	7874.410141834181	140
0	27345	7875.138818968971	139
0	27348	7876.40492516451	140
0	27384	7887.406837105263	141
0	27394	7889.099117535482	140
0	27409	7891.833152405389	141
0	27440	7902.772868689177	140
0	27482	7908.858187189781	141
0	27518	7918.905692008948	140
0	27554	7929.238968608468	141
0	27581	7935.404875817277	140
0	27585	7935.882167674226	139
0	27600	7940.570717909315	140
0	27606	7941.37927658094	141
0	27611	7943.347208318349	140
0	27614	7944.203281362504	141
0	27656	7953.446864366984	142
0	27681	7959.955249689265	141
0	27728	7973.706172588461	142
0	27750	7976.503934527308	141
0	27753	7976.712522521024	142
0	27764	7979.057003414252	141
0	27770	7981.470715934183	142
0	27772	7981.648064972364	141
0	27776	7983.866680988587	142
0	27808	7989.862283784937	143
0	27873	8004.73666660127	144
0	27896	8010.067555712828	143
0	27906	8013.371990430501	144
0	27946	8025.261208553124	143
0	27965	8031.16311429876	144
0	28011	8039.549485834323	143
0	28015	8040.476064261332	144
0	28045	8055.135778975637	145
0	28050	8058.940563710027	144
0	28072	8065.599173545583	143
0	28075	8066.232316083553	144
0	28082	8069.154026416565	145
0	28140	8083.259369173191	146
0	28177	8093.213267788233	145
0	28205	8099.131865350003	144
0	28208	8099.601885190145	145
0	28226	8107.476207599835	146
0	28253	8110.919802650753	147
0	28291	8119.550216970477	146
0	28327	8133.152244801331	145
0	28330	8133.78428316623	146
0	28359	8142.695428088925	145
0	28369	8146.268218233148	146
0	28382	8150.32945259272	145
0	28385	8150.490998417408	146
0	28388	8150.781782698981	147
0	28456	8171.563124351802	146
0	28467	8173.439244040084	147
0	28491	8178.755385429647	148
0	28570	8195.247770542533	149
0	28574	8195.666200984584	148
0	28584	8199.168626822231	149
0	28637	8217.185244093376	148
0	28659	8226.196400750516	149
0	28672	8229.852680139072	148
0	28684	8234.942924518333	147
0	28687	8235.25629894149	148
0	28750	8257.266793270106	149
0	28761	8260.412113105107	148
0	28764	8260.70659771523	149
0	28841	8278.353383076766	148
0	28845	8280.272875889113	149
0	28870	8287.869613263769	150
0	28885	8291.84719807236	149
0	28888	8292.550069586149	150
0	28949	8302.799827659417	151
0	28963	8309.618069448061	150
0	28969	8310.096444669331	151
0	29008	8318.428770801287	150
0	29023	8324.609117061037	151
0	29054	8331.973249475065	150
0	29067	8335.34145142997	151
0	29086	8341.500746491717	150
0	29089	8343.020372496653	151
0	29112	8350.744376069653	152
0	29145	8361.685378194644	151
0	29164	8365.339480433787	152
0	29169	8366.26124805252	151
0	29172	8368.119765490892	152
0	29212	8378.3434977514	153
0	29230	8381.897558941791	154
0	29260	8392.435448599782	153
0	29325	8407.246942186982	154
0	29344	8409.914565312993	153
0	29365	8413.322418049091	154
0	29366	8413.537934833737	153
0	29377	8419.704847626435	154
0	29454	8437.224591439534	155
0	29468	8443.197106836052	154
0	29516	8463.271592381324	153
0	29531	8467.59950190985	154
0	29547	8470.329042692362	155
0	29611	8485.542605282648	154
0	29623	8486.821385741611	155
0	29661	8497.27599551811	154
0	29665	8498.024542889508	155
0	29696	8508.377426386898	154
0	29699	8508.486095467973	155
0	29721	8518.402915849693	156
0	29744	8522.691074173036	155
0	29751	8523.906787689351	156
0	29764	8527.073361591547	157
0	29832	8546.987754357995	158
0	29836	8548.805320802376	157
0	29845	8551.010651766957	158
0	29846	8551.740094121004	157
0	29849	8553.149372765972	158
0	29887	8562.659573228104	157
0	29889	8563.448104991423	156
0	29902	8567.848308518912	157
0	29924	8573.079216665431	156
0	29930	8574.386695373766	157
0	29949	8579.233564652873	158
0	29976	8585.297093666871	157
0	29982	8586.48886420601	158
0	29983	8588.915616342589	157
0	29990	8590.118841556548	158
0	30050	8607.619539340564	157
0	30053	8608.446527182982	158
0	30098	8623.450701334058	157
0	30105	8626.895589233597	156
0	30108	8627.737322620423	157
0	30135	8635.856758096904	158
0	30208	8653.476486862174	159
0	30217	8654.436549972237	158
0	30220	8655.322083539813	159
0	30281	8666.910142520495	160
0	30289	8671.118307621063	159
0	30296	8674.223187674164	160
0	30357	8691.29224979441	159
0	30360	8691.932712288613	160
0	30425	8707.570488364492	159
0	30428	8708.875596716108	160
0	30446	8718.988740401293	159
0	30452	8721.960339316732	158
0	30455	8722.972104698535	159
0	30462	8723.982524906568	160
0	30473	8726.044157951218	159
0	30476	8726.72767751156	160
0	30477	8727.087299247864	159
0	30483	8727.204916009981	160
0	30505	8732.270800229883	161
0	30553	8748.38439985728	160
0	30556	8748.916740380078	161
0	30570	8751.685085416838	160
0	30598	8763.825596444465	161
0	30627	8773.279591003567	162
0	30639	8775.801748232368	161
0	30645	8776.166955003695	162
0	30654	8779.04615991811	161
0	30664	8782.764550769999	162
0	30666	8784.680211514335	161
0	30672	8786.5246088607	162
0	30745	8806.765226521586	163
0	30764	8813.389602170042	162
0	30776	8814.417685490462	163
0	30828	8828.541642000117	164
0	30859	8832.3625019859	163
0	30862	8832.750917963796	164
0	30874	8834.450056052768	165
0	30875	8835.416660703035	164
0	30884	8836.486885182004	165
0	30899	8844.811475751173	164
0	30909	8848.224423681505	165
0	30913	8850.445612589133	164
0	30940	8856.038450221046	165
0	30947	8856.785826006726	164
0	30950	8858.264843780117	165
0	31010	8871.020102440302	164
0	31037	8880.688442055599	165
0	31047	8882.01787791956	164
0	31050	8882.1262960219	165
0	31076	8891.523991072535	166
0	31114	8899.703705937701	165
0	31117	8900.135977131615	166
0	31143	8906.54363966037	167
0	31180	8912.673886419784	168
0	31184	8912.834869593321	167
0	31187	8912.986809948951	168
0	31208	8917.848800876356	167
0	31216	8919.12780722263	168
0	31236	8922.872725182354	167
0	31267	8932.097657684659	168
0	31274	8934.345074477944	167
0	31277	8935.275955009865	168
0	31281	8937.812172070488	167
0	31291	8939.850259582253	166
0	31294	8941.466765899416	167
0	31311	8945.799839593269	168
0	31365	8959.707105455339	169
0	31391	8968.235519945016	168
0	31395	8969.60419556561	167
0	31402	8974.917434902396	168
0	31433	8984.792400483504	169
0	31467	8992.959078895499	168
0	31489	8997.845653208324	169
0	31502	9000.033195898292	168
0	31505	9000.336884541881	169
0	31521	9007.358680975864	170
0	31575	9024.365364188801	169
0	31584	9025.405679182772	170
0	31659	9045.916546638998	171
0	31660	9046.265424589833	170
0	31663	9046.30258993351	171
0	31688	9053.079319235379	170
0	31703	9056.690308493541	171
0	31728	9064.781485462968	170
0	31738	9066.020271462967	171
0	31763	9073.096836644434	170
0	31774	9074.809412420833	171
0	31810	9084.825364767751	170
0	31818	9085.654975960473	169
0	31819	9087.161421289739	168
0	31825	9088.863639670286	169
0	31828	9090.741853814589	170
0	31855	9096.284011778435	171
0	31870	9103.515242019019	170
0	31873	9103.557480112871	171
0	31925	9122.571919951541	170
0	31951	9132.512585807443	169
0	31954	9133.114541239226	170
0	31958	9134.132117363103	169
0	31961	9134.330227882236	170
0	31970	9135.15719945599	171
0	32045	9147.972284106593	172
0	32053	9150.969031251975	171
0	32054	9151.440353718252	170
0	32057	9151.595608641996	171
0	32060	9154.520251094029	172
0	32145	9175.815297250506	171
0	32153	9180.295142714066	170
0	32156	9180.975094014552	171
0	32159	9181.663698914823	172
0	32176	9185.675666610245	171
0	32188	9186.947344253317	172
0	32240	9199.464778535556	173
0	32277	9210.592502212643	174
0	32297	9214.802069773993	173
0	32299	9215.575099959052	172
0	32306	9216.830435369044	173
0	32315	9220.62455352198	174
0	32323	9222.500003504394	173
0	32328	9223.818759661847	172
0	32331	9224.40836374449	173
0	32340	9225.154908322308	174
0	32430	9251.678746516619	173
0	32456	9259.868772798817	174
0	32479	9264.582125819495	173
0	32487	9266.152128994317	174
0	32557	9285.11688559047	175
0	32564	9285.749346344578	174
0	32568	9287.117653813877	175
0	32605	9297.948538819541	174
0	32613	9303.899569899766	173
0	32620	9305.339306184234	174
0	32662	9319.613822843701	175
0	32688	9327.648306615819	174
0	32689	9329.279885148429	173
0	32692	9329.524355642366	174
0	32695	9329.527452056716	175
0	32720	9332.942987793855	176
0	32724	9333.765849175585	175
0	32727	9334.283014092857	176
0	32804	9356.973395615638	175
0	32807	9358.407652688726	176
0	32882	9377.225502870756	177
0	32914	9386.347062283413	176
0	32935	9393.979615725923	177
0	32955	9398.616512928825	176
0	32974	9403.518241626363	177
0	32998	9410.185146555555	178
0	33022	9414.773300382897	177
0	33028	9416.21695058209	178
0	33035	9420.407619622594	177
0	33036	9420.50008817639	176
0	33047	9428.742578987212	177
0	33060	9431.003755417649	178
0	33107	9438.633182486853	177
0	33122	9442.945258496562	178
0	33166	9453.754530468424	177
0	33176	9457.940268239947	178
0	33219	9468.215305182832	179
0	33237	9472.954666137557	178
0	33240	9473.603194292202	179
0	33310	9492.488198340231	178
0	33340	9506.345198478014	177
0	33343	9506.622892674983	178
0	33352	9507.424192615251	179
0	33395	9515.87309571786	180
0	33411	9521.262327135624	179
0	33417	9522.831455941761	180
0	33486	9538.50694824059	181
0	33524	9548.698592687609	180
0	33527	9549.539237361534	181
0	33536	9551.973326766638	182
0	33597	9568.051832418057	181
0	33621	9574.567014303536	182
0	33658	9580.362412864123	183
0	33666	9583.860012447545	182
0	33672	9585.405852230362	183
0	33721	9593.136939769598	184
0	33749	9598.730485062557	183
0	33758	9600.14922942844	184
0	33774	9607.16297061767	183
0	33787	9612.464524926678	184
0	33811	9617.895202865681	185
0	33813	9619.759211135667	184
0	33857	9629.379535072097	185
0	33889	9640.722871047005	184
0	33892	9642.351863144576	185
0	33901	9643.61885533459	186
0	33906	9645.409736925612	185
0	33921	9647.979104330249	186
0	33935	9651.129611580201	185
0	33968	9658.273340606612	186
0	34007	9665.954540930155	185
0	34011	9667.567424543169	186
0	34017	9668.624664325169	187
0	34029	9669.684880960606	186
0	34035	9670.900305229196	187
0	34036	9671.205656979984	186
0	34105	9693.277225545111	187
0	34144	9699.578522594306	186
0	34145	9699.76329110227	185
0	34154	9701.762087883529	186
0	34160	9702.41886759671	187
0	34240	9725.751912833282	186
0	34265	9735.195539700655	185
0	34268	9735.352760268011	186
0	34279	9740.229531942974	187
0	34336	9757.136022062008	186
0	34342	9759.344403509358	187
0	34357	9762.831313543125	188
0	34396	9774.276915137746	187
0	34400	9775.154658443513	188
0	34441	9788.978781726038	187
0	34445	9790.262246448936	188
0	34458	9797.709201277452	189
0	34481	9804.642950765836	188
0	34484	9805.084586381689	189
0	34554	9828.925755622397	188
0	34587	9836.315834847216	187
0	34593	9837.206445119497	188
0	34628	9846.791913334604	189
0	34642	9860.383130587259	188
0	34686	9869.580757030405	187
0	34714	9876.852054234541	186
0	34722	9881.300461231493	187
0	34728	9883.338130776898	188
0	34775	9898.414610803093	187
0	34792	9905.369877071997	188
0	34815	9911.985521183767	189
0	34876	9924.46129767765	188
0	34886	9926.26283799444	189
0	34890	9929.827916023106	188
0	34897	9931.774671975962	189
0	34917	9939.871407417673	190
0	34977	9953.67437334366	189
0	34992	9957.58180192506	190
0	35051	9971.926264545648	191
0	35079	9983.586416982828	190
0	35082	9983.784921015146	191
0	35090	9988.474974963748	190
0	35093	9990.030618431636	191
0	35118	9996.658601491825	190
0	35124	10000.204091149916	191
0	35158	10014.495021787461	190
0	35170	10018.746013402431	191
0	35175	10022.50291491388	190
0	35185	10023.961529242723	191
0	35242	10033.985514994088	192
0	35284	10043.468587491398	193
0	35297	10047.235770723717	192
0	35306	10051.159919257095	193
0	35337	10059.32777069692	192
0	35343	10060.542327092108	191
0	35349	10061.408740754736	192
0	35362	10063.787470772684	193
0	35402	10076.129163965384	192
0	35405	10077.169694012567	193
0	35437	10087.594333599841	194
0	35447	10088.976491634141	193
0	35448	10090.943721457263	192
0	35449	10090.999638178859	191
0	35455	10091.053151039763	192
0	35458	10091.903160960395	193
0	35461	10092.349995961894	194
0	35484	10099.189031912615	193
0	35488	10100.376493664391	194
0	35522	10110.261260688095	193
0	35525	10110.325278458564	194
0	35542	10113.623516099034	193
0	35545	10113.723206743599	194
0	35550	10114.611630503955	193
0	35560	10115.503699358867	194
0	35562	10115.828580726845	193
0	35568	10116.301410064933	194
0	35610	10127.816274518446	195
0	35611	10128.66143339128	194
0	35635	10137.600074396089	193
0	35638	10137.784357958701	194
0	35690	10153.35221715617	195
0	35697	10156.158325577696	194
0	35731	10164.612202996689	195
0	35740	10166.986769004665	194
0	35757	10174.490761760123	193
0	35764	10177.197796870784	194
0	35770	10178.331943630398	193
0	35782	10181.898369336424	192
0	35785	10181.992822325357	193
0	35806	10190.756544274496	192
0	35810	10191.667312480978	193
0	35820	10194.207488428037	194
0	35841	10204.614678084608	193
0	35858	10213.690203316159	192
0	35876	10225.00119623275	191
0	35879	10225.448482542036	192
0	35903	10229.542331074021	193
0	35966	10253.384342697606	194
0	35974	10254.213351472807	193
0	36036	10268.527254621898	194
0	36075	10284.152573805113	193
0	36099	10293.481598436948	194
0	36138	10298.645408083229	193
0	36144	10299.460679956752	194
0	36150	10300.598048814463	195
0	36173	10310.411173087156	194
0	36181	10312.165838051369	193
0	36187	10314.256999397758	194
0	36200	10319.889672496463	193
0	36206	10322.212193788831	194
0	36252	10335.620537917699	193
0	36259	10338.100257848425	194
0	36298	10351.887163630061	195
0	36319	10356.765055830317	194
0	36323	10359.332533916258	195
0	36368	10375.736909954114	194
0	36416	10389.587800852135	195
0	36426	10391.680183158762	194
0	36429	10391.722586752875	195
0	36477	10406.960064857467	196
0	36514	10417.770290647606	195
0	36517	10417.773757773521	196
0	36526	10419.051975731628	197
0	36543	10422.163251519577	196
0	36596	10435.339380995303	197
0	36626	10444.889177207435	196
0	36672	10462.916496476222	197
0	36685	10466.103879180705	196
0	36691	10466.970190413715	197
0	36702	10469.544757045121	196
0	36720	10472.861714936685	197
0	36756	10484.571284657678	198
0	36790	10491.762350655156	197
0	36793	10492.067957872962	198
0	36799	10493.375926232843	199
0	36855	10510.402245621455	198
0	36865	10513.397285125721	199
0	36880	10516.929581236723	198
0	36897	10523.476686827695	197
0	36910	10526.438398584667	198
0	36953	10543.33275529336	197
0	37000	10556.901303653648	198
0	37031	10565.760075950053	199
0	37051	10568.9564157802	198
0	37058	10569.477395332683	199
0	37081	10574.869045759472	200
0	37147	10595.578371807607	199
0	37148	10595.632777332307	198
0	37154	10597.903859661425	199
0	37163	10599.879264894718	200
0	37174	10603.996052546341	199
0	37177	10606.224465919163	200
0	37184	10606.587234470424	201
0	37227	10621.872010057775	200
0	37230	10624.855367459777	201
0	37236	10628.235695565703	200
0	37291	10643.080499727761	201
0	37297	10645.027443367813	200
0	37312	10649.11558532389	201
0	37398	10671.649347732679	200
0	37401	10672.828939868649	201
0	37411	10675.159660557511	202
0	37424	10678.374900252386	201
0	37444	10682.924189317523	202
0	37499	10699.348954626371	201
0	37502	10699.585849803927	202
0	37574	10727.263679701555	201
0	37586	10733.541220550163	202
0	37630	10751.785046210923	201
0	37638	10756.217761181973	200
0	37649	10760.766862541029	199
0	37652	10761.349748324996	200
0	37655	10761.99861451641	201
0	37660	10763.75427586176	200
0	37662	10764.513444666864	199
0	37665	10764.664520321089	200
0	37672	10766.535742260172	199
0	37678	10766.854205740431	200
0	37683	10769.113227325	199
0	37686	10769.453958040679	200
0	37692	10770.054278979726	201
0	37714	10774.919441073606	200
0	37727	10776.93903631313	201
0	37733	10780.167593112828	202
0	37758	10785.418545299596	203
0	37782	10791.250472897131	202
0	37807	10797.559284648685	201
0	37810	10797.962545037213	202
0	37819	10802.228717071627	203
0	37853	10810.28049413039	202
0	37859	10810.378926926536	203
0	37863	10811.024237616865	202
0	37866	10812.842176676436	203
0	37874	10814.418733923331	202
0	37877	10814.994744387839	203
0	37884	10815.528702221023	204
0	37892	10819.032184952288	203
0	37905	10824.4194759659	204
0	37924	10832.754872583618	203
0	37978	10848.930485483386	204
0	38011	10856.70162682534	205
0	38012	10856.857579657761	204
0	38015	10857.797387386752	205
0	38092	10878.200920805574	206
0	38096	10879.221608012801	205
0	38099	10879.801861057618	206
0	38137	10892.019618885523	207
0	38148	10894.368773715919	206
0	38155	10898.038515401991	207
0	38190	10906.550797716943	206
0	38210	10912.714137187578	205
0	38219	10914.145310718191	206
0	38245	10921.01434179921	207
0	38251	10921.892215177616	206
0	38257	10923.6764917378	207
0	38309	10942.543458540468	206
0	38316	10946.935329966008	207
0	38330	10952.178558236253	206
0	38336	10954.349978935451	207
0	38406	10979.197370493257	206
0	38409	10980.369475436725	207
0	38421	10981.927878922886	208
0	38494	11001.381766089508	209
0	38505	11006.869388087288	208
0	38519	11010.69208242052	207
0	38525	11011.331635803879	208
0	38546	11016.24308806524	207
0	38556	11020.569989310427	208
0	38575	11026.956116527249	209
0	38634	11040.654975192574	208
0	38661	11049.674583565481	207
0	38664	11050.030378089876	208
0	38673	11052.247541267925	207
0	38689	11056.63640929941	208
0	38707	11064.650957740429	207
0	38736	11070.047553856882	208
0	38743	11074.762057058272	207
0	38781	11084.941846851965	208
0	38810	11093.621311780722	209
0	38831	11098.788449751649	208
0	38834	11098.897338822783	209
0	38835	11099.624765205112	208
0	38871	11106.90406130212	209
0	38906	11115.53776653232	208
0	38913	11116.802508247396	207
0	38917	11116.884507610624	208
0	38918	11118.496431750187	207
0	38927	11120.077801144676	208
0	38939	11122.38198226211	209
0	38963	11128.602268341612	210
0	39004	11143.06924514056	209
0	39008	11144.646874373805	210
0	39071	11164.472760599391	209
0	39076	11166.556138932811	210
0	39079	11167.252695280937	209
0	39101	11174.600702175094	208
0	39104	11175.661311245097	209
0	39110	11176.343962144107	210
0	39173	11193.686027431099	209
0	39184	11198.954573907594	210
0	39218	11207.706684864525	211
0	39219	11208.350687063607	210
0	39222	11209.496995903048	211
0	39249	11212.881939586184	210
0	39252	11212.892288839896	211
0	39269	11220.039733362141	212
0	39331	11240.258435064234	211
0	39337	11242.654766230089	212
0	39348	11249.399528946493	211
0	39357	11251.219477502997	212
0	39411	11262.963420381765	213
0	39448	11274.503526957457	212
0	39452	11275.435930427441	213
0	39475	11282.745941096221	214
0	39493	11288.036881577063	213
0	39499	11288.140721558595	214
0	39550	11301.80467528624	213
0	39576	11312.405446613784	214
0	39577	11312.889112556096	213
0	39594	11317.811033250936	214
0	39650	11335.717849523464	213
0	39651	11336.345258103097	212
0	39659	11338.181079707627	213
0	39704	11348.108766860587	214
0	39723	11356.846391040687	213
0	39733	11360.039761253414	214
0	39794	11375.862196431439	215
0	39817	11385.026844127956	214
0	39820	11385.230955548687	215
0	39847	11400.336241801365	214
0	39856	11401.364857341719	215
0	39888	11411.138357020088	214
0	39898	11413.04606592539	215
0	39923	11420.955752583326	214
0	39936	11425.842325336968	213
0	39938	11426.441196207333	212
0	39941	11426.820456927536	213
0	39965	11435.318749461838	214
0	40005	11455.828004661941	213
0	40014	11459.00037730668	214
0	40015	11459.29043306163	213
0	40025	11462.120199089477	214
0	40075	11475.859962101041	215
0	40112	11483.712637883956	214
0	40119	11484.742305433722	215
0	40142	11490.504025302601	214
0	40155	11492.284081281919	215
0	40190	11502.548425877695	214
0	40205	11505.349709811772	215
0	40209	11507.777331721999	214
0	40216	11509.089017584694	215
0	40247	11512.243225523031	216
0	40295	11524.553643983858	217
0	40323	11530.511500798639	216
0	40369	11545.251269619127	215
0	40372	11546.959522952953	216
0	40382	11548.306293286648	217
0	40421	11557.202862958742	216
0	40442	11563.396765410173	217
0	40443	11564.231850684024	216
0	40465	11568.815509590239	217
0	40520	11591.078593159336	216
0	40527	11592.56946512057	217
0	40544	11594.968763097195	218
0	40593	11615.712138984423	217
0	40602	11619.321558686606	218
0	40667	11638.787688981066	217
0	40687	11646.719239437237	216
0	40696	11647.425504516683	217
0	40744	11661.744563678009	216
0	40761	11663.703029103054	217
0	40787	11674.954991823439	216
0	40794	11675.822632501886	217
0	40795	11675.878131498193	216
0	40803	11678.428438894269	217
0	40808	11681.755208441318	216
0	40811	11682.413850357584	217
0	40847	11694.206478113914	216
0	40864	11697.5946590625	217
0	40921	11714.855098444791	218
0	40933	11718.962680840051	217
0	40940	11721.093859014644	216
0	40947	11722.401676955417	217
0	40974	11732.23455347314	216
0	40982	11737.381351693694	217
0	40989	11742.111883090194	216
0	40992	11742.429386496937	217
0	41022	11749.311864769769	218
0	41051	11757.943664860685	217
0	41054	11758.335450838164	218
0	41067	11762.531208044628	217
0	41070	11763.189721902055	218
0	41082	11764.782026427613	219
0	41107	11768.908141260103	220
0	41126	11774.435328497774	219
0	41145	11779.2339595707	218
0	41151	11779.837436174978	219
0	41161	11781.794275820706	220
0	41179	11786.088346695707	221
0	41183	11786.804672576537	220
0	41185	11787.888659505526	219
0	41188	11789.183930517214	220
0	41228	11800.290734519446	221
0	41260	11808.160612566032	220
0	41263	11810.821040416334	221
0	41296	11819.088513548557	220
0	41299	11820.290286067253	221
0	41349	11833.416153468532	220
0	41364	11835.836242637514	221
0	41428	11853.720650904199	220
0	41432	11853.848781934983	221
0	41455	11859.885054130708	222
0	41465	11861.597707172104	221
0	41466	11863.693844626793	220
0	41476	11868.706616887106	221
0	41505	11875.64683498688	222
0	41530	11883.836272921587	223
0	41556	11891.273855600881	222
0	41615	11903.465403889874	223
0	41632	11907.341681729253	222
0	41639	11910.445568087451	223
0	41646	11913.899412075368	222
0	41650	11914.589290765557	223
0	41698	11932.113585127677	222
0	41704	11934.704952138155	223
0	41713	11937.19966019681	222
0	41755	11944.526259627861	223
0	41813	11962.363022091723	224
0	41825	11964.229945989814	223
0	41838	11968.039484116538	224
0	41901	11984.077064636446	223
0	41904	11984.641303949769	224
0	41962	11997.298030167971	225
0	41963	11997.326519766362	224
0	41990	12008.25019885742	225
0	42049	12024.160309349109	224
0	42053	12024.339745859572	225
0	42070	12030.851753050851	226
0	42155	12048.561424300328	225
0	42165	12052.250235727734	226
0	42211	12068.148325947367	225
0	42219	12071.858314963568	224
0	42222	12072.087608323529	225
0	42270	12082.116266479116	226
0	42274	12083.398064857324	225
0	42277	12084.480129477318	226
0	42323	12092.74856872522	227
0	42371	12107.255710589663	226
0	42374	12107.305273753494	227
0	42389	12109.932312648303	226
0	42392	12110.837836173762	227
0	42415	12119.95927081808	226
0	42418	12120.081273501968	227
0	42431	12126.565490114571	228
0	42440	12133.875143902375	227
0	42448	12134.752133009443	226
0	42455	12135.230636550426	227
0	42472	12140.004707934344	228
0	42486	12146.762689411301	227
0	42489	12148.445973929015	228
0	42491	12149.732603163943	227
0	42499	12151.920582703369	226
0	42505	12154.168642088049	227
0	42514	12156.193799070669	228
0	42519	12159.064030768168	227
0	42556	12169.524646272343	228
0	42589	12181.467954695316	227
0	42596	12183.416060938501	228
0	42649	12201.185310020056	227
0	42656	12203.200369829332	228
0	42693	12217.875517522222	229
0	42721	12224.078022202914	228
0	42733	12226.387828245282	227
0	42742	12227.75661529253	228
0	42782	12239.638443811477	229
0	42785	12242.747637797062	228
0	42825	12257.083023274212	229
0	42854	12263.822265493472	230
0	42872	12269.906668616891	229
0	42876	12270.887799291277	230
0	42912	12275.982120349116	231
0	42938	12284.001721588214	230
0	42975	12292.335629368232	231
0	42996	12296.619517271294	232
0	42997	12297.624067336814	231
0	43000	12298.44098114759	232
0	43005	12299.137457302303	231
0	43098	12320.183381071978	230
0	43112	12324.909063013508	231
0	43186	12342.510508475963	230
0	43189	12344.151839363969	231
0	43192	12344.694423564847	232
0	43222	12355.155061194327	231
0	43232	12358.942481378132	232
0	43258	12365.028721004398	231
0	43281	12370.117721076452	232
0	43296	12374.682374984463	231
0	43299	12375.343374595035	232
0	43347	12388.837075668089	233
0	43360	12392.742736926621	232
0	43361	12392.747683893621	231
0	43364	12393.609065116556	232
0	43373	12394.871041251765	233
0	43396	12404.719896751791	232
0	43426	12411.135822569016	233
0	43493	12428.076298608688	232
0	43496	12428.901398906471	233
0	43565	12453.272127448847	232
0	43572	12455.624087748712	231
0	43585	12457.931610116777	232
0	43596	12462.434202286504	233
0	43664	12478.536175969789	234
0	43672	12483.864856314216	233
0	43686	12488.928271850888	234
0	43731	12497.78571839197	233
0	43762	12503.388428446709	234
0	43803	12512.06402906973	235
0	43856	12525.651930746023	234
0	43868	12527.100131557123	235
0	43900	12536.333449026318	236
0	43955	12550.191558679441	235
0	43956	12550.70431260673	234
0	43960	12552.309713511739	235
0	43981	12557.69155057041	234
0	43985	12559.344400092822	235
0	43997	12561.95906079212	236
0	44024	12568.129334735719	235
0	44050	12576.969472126687	236
0	44098	12591.177434316129	237
0	44124	12595.422639088929	236
0	44132	12596.991600112931	235
0	44135	12597.23659356985	236
0	44145	12600.346503738757	237
0	44146	12600.633867085384	236
0	44168	12606.517317420359	237
0	44229	12622.955160660131	236
0	44235	12624.243791989961	237
0	44242	12624.937801339053	236
0	44259	12630.472119829896	237
0	44274	12636.721714858836	238
0	44300	12645.696192979138	237
0	44306	12648.495809649746	238
0	44323	12655.876273528662	237
0	44324	12656.448783317663	236
0	44327	12656.4962475445	237
0	44340	12660.835480604296	238
0	44350	12662.395290295354	237
0	44386	12667.311024745411	238
0	44396	12670.1301373958	237
0	44403	12672.454997062686	238
0	44441	12683.798034416584	237
0	44444	12684.418907335182	238
0	44485	12697.027916771647	237
0	44491	12699.331705940905	238
0	44520	12707.038704507932	239
0	44542	12712.637513961727	238
0	44551	12713.850188284708	239
0	44573	12719.677163719699	238
0	44577	12721.133289027613	239
0	44662	12743.624853363112	238
0	44665	12743.830490531476	239
0	44672	12746.502651540562	240
0	44690	12750.836044053238	239
0	44696	12751.103560434031	240
0	44710	12757.012174485709	239
0	44725	12760.36981550685	238
0	44728	12760.602444612716	239
0	44745	12762.724778621107	240
0	44766	12769.868302502901	239
0	44769	12770.531881253455	240
0	44786	12775.287720565855	241
0	44826	12784.154215437642	242
0	44846	12789.968267185053	241
0	44873	12797.747490662543	240
0	44876	12798.959170755215	241
0	44885	12799.966761653105	242
0	44926	12809.420623047145	243
0	44930	12810.317004466605	242
0	44933	12810.321413176722	243
0	44998	12824.901048723503	244
0	45008	12829.335608529759	243
0	45011	12829.437942126316	244
0	45027	12834.666928744256	245
0	45054	12841.184535801278	244
0	45079	12844.910640226661	245
0	45084	12848.789182460105	244
0	45088	12849.964720154132	243
0	45094	12850.895140866536	244
0	45115	12857.392471820424	243
0	45118	12858.836968108306	244
0	45121	12858.97113022194	245
0	45132	12860.848732487941	244
0	45135	12860.986275108816	245
0	45187	12872.244366948549	246
0	45227	12881.351018369252	247
0	45249	12885.824943774034	248
0	45251	12888.059936750251	247
0	45278	12896.524446584517	246
0	45292	12904.291219193551	245
0	45295	12905.451878802661	246
0	45329	12913.022978383086	247
0	45360	12922.753299014941	246
0	45366	12923.161180298998	247
0	45420	12934.309010579739	248
0	45470	12946.667313556384	247
0	45473	12946.927538994015	248
0	45480	12949.790194861569	247
0	45486	12950.976752251097	248
0	45495	12957.364915695903	247
0	45497	12958.195141110488	246
0	45517	12962.530310496775	247
0	45558	12977.861178731978	248
0	45573	12982.35628721002	247
0	45579	12982.979007016445	248
0	45584	12983.745632780381	247
0	45591	12986.486654698199	248
0	45612	12996.748451551038	247
0	45634	13005.831331408548	248
0	45670	13016.670520048323	247
0	45679	13019.588102925451	248
0	45680	13019.681286391295	247
0	45686	13021.550164231755	248
0	45749	13036.733710695777	249
0	45756	13037.414158108947	248
0	45759	13037.505749652493	249
0	45791	13046.793639708485	248
0	45795	13049.127202699976	249
0	45817	13056.264840086587	250
0	45906	13074.193449706343	251
0	45914	13075.647459080098	250
0	45927	13077.485944001816	251
0	45949	13083.742011409764	250
0	45952	13083.854993334798	251
0	46005	13096.726557831445	252
0	46042	13109.075741185387	251
0	46051	13110.900569992668	252
0	46116	13124.448873974901	251
0	46119	13124.645069708184	252
0	46166	13138.03986147075	253
0	46170	13139.561171350427	252
0	46173	13140.358685776179	253
0	46210	13145.36551340879	252
0	46213	13145.414726844576	253
0	46273	13166.612305477098	252
0	46276	13166.783412339801	253
0	46279	13166.813712575507	254
0	46292	13169.304161426638	253
0	46301	13173.170746563158	254
0	46302	13173.617043626393	253
0	46321	13177.279602128622	254
0	46401	13194.902842949389	255
0	46409	13196.392825239532	254
0	46410	13197.568146029244	253
0	46416	13198.954191669155	254
0	46419	13200.139297405032	255
0	46451	13206.646603828754	256
0	46475	13212.88395677184	255
0	46485	13215.810142429886	256
0	46510	13224.988481951165	257
0	46537	13232.556319248257	256
0	46540	13235.420282802915	257
0	46600	13246.72857083597	258
0	46632	13250.943980839569	257
0	46635	13251.205463301202	258
0	46661	13257.984609748999	259
0	46693	13273.629829002415	258
0	46712	13277.457184618731	259
0	46716	13278.092695394966	258
0	46726	13283.178523641227	259
0	46772	13292.632070852351	260
0	46792	13299.676152672339	259
0	46801	13300.853154535633	260
0	46848	13311.655698768826	261
0	46922	13325.859329660158	262
0	46924	13327.132170859168	261
0	46933	13331.943216501817	262
0	46984	13348.368248713532	263
0	46996	13350.42807175432	262
0	47002	13350.920486643052	263
0	47037	13361.773871317311	262
0	47044	13362.303750448337	263
0	47076	13367.527949245267	264
0	47096	13372.148958304483	263
0	47102	13374.94867814361	264
0	47116	13380.570731490524	263
0	47118	13381.651601421575	262
0	47124	13383.493767008769	263
0	47127	13383.998889733471	264
0	47156	13391.52512262299	265
0	47207	13406.349884020236	264
0	47239	13413.791483092946	265
0	47319	13431.383179687243	266
0	47329	13433.184451693548	265
0	47332	13434.31273063174	266
0	47347	13436.285986985746	265
0	47349	13439.177323623191	264
0	47359	13440.727172773389	265
0	47372	13444.440865357359	266
0	47401	13451.348272004364	265
0	47407	13452.72031264955	266
0	47418	13457.640485875787	265
0	47425	13459.998398474721	266
0	47434	13461.028632286968	267
0	47465	13465.896200971595	268
0	47530	13481.779101101715	269
0	47531	13482.979756900095	268
0	47537	13483.598514200663	269
0	47538	13483.652918302317	268
0	47611	13507.452254932781	267
0	47612	13507.516391693105	266
0	47615	13508.004300114194	267
0	47627	13509.510431513094	268
0	47685	13535.613062762149	267
0	47691	13537.564210272631	268
0	47756	13565.456771770281	267
0	47759	13565.502846028299	268
0	47812	13577.24844385105	269
0	47846	13585.346359463028	268
0	47860	13588.352315863479	267
0	47877	13593.018488447326	268
0	47889	13601.240044560275	267
0	47897	13602.439550956773	268
0	47908	13604.999602704097	267
0	47914	13606.103711761776	268
0	47946	13612.199129670039	269
0	47951	13613.772806079585	268
0	47965	13617.191690128157	269
0	48004	13628.089249715409	268
0	48007	13628.171886606336	269
0	48088	13651.583586251718	270
0	48089	13653.361347672377	269
0	48095	13653.476279012001	270
0	48167	13680.54438882403	269
0	48172	13681.26719246379	268
0	48179	13686.668859794335	269
0	48182	13687.665773065068	270
0	48231	13701.924286321565	271
0	48265	13709.984887279205	270
0	48268	13710.921162668601	271
0	48285	13715.289786899869	272
0	48294	13717.022244590848	271
0	48303	13718.304115255686	272
0	48336	13725.991795326665	273
0	48387	13741.127081081757	272
0	48397	13743.286176298948	273
0	48406	13743.514203601526	274
0	48411	13745.874594075628	273
0	48462	13761.206752437978	272
0	48463	13761.571978820131	271
0	48466	13762.38267542514	272
0	48479	13767.395966844441	271
0	48482	13768.211122868483	272
0	48485	13769.347015491724	273
0	48487	13773.552907713899	272
0	48536	13795.214449341961	271
0	48601	13820.025104976915	270
0	48607	13821.770967074534	271
0	48674	13841.422775205222	270
0	48678	13844.154754724735	269
0	48686	13845.829548983499	270
0	48695	13847.746406448957	271
0	48726	13852.571154451892	272
0	48747	13859.746622572042	271
0	48759	13862.161859058381	272
0	48803	13869.780374781426	273
0	48846	13878.119688999551	272
0	48852	13879.377653102376	273
0	48855	13880.289551001429	274
0	48877	13885.307290796994	275
0	48887	13888.836105525013	274
0	48896	13891.625340124954	275
0	48921	13896.964731728378	276
0	48959	13905.39128347115	275
0	49013	13920.901197050921	274
0	49016	13921.170257004295	275
0	49031	13924.897482139604	276
0	49041	13926.251915203853	275
0	49044	13926.37662702615	276
0	49123	13947.280902373663	275
0	49132	13948.143366727196	276
0	49135	13949.153716545348	277
0	49189	13967.631589988347	278
0	49193	13968.968244460876	277
0	49201	13970.385883925332	278
0	49238	13985.72552978293	279
0	49269	13990.900747417298	278
0	49272	13992.026943271659	277
0	49278	13993.364871611573	278
0	49294	14000.047237174552	279
0	49339	14012.516279382692	278
0	49340	14014.434794533915	277
0	49346	14015.267981018067	278
0	49357	14021.161379924539	279
0	49383	14028.795080490338	278
0	49392	14029.472769252191	279
0	49409	14033.860003589761	280
0	49421	14036.97774003291	279
0	49432	14041.826896986274	278
0	49436	14043.947332517315	279
0	49441	14046.946848410963	278
0	49455	14054.365320125321	279
0	49465	14059.82503756659	278
0	49474	14062.096452741234	277
0	49478	14063.587588963455	278
0	49493	14071.240384588856	279
0	49515	14078.967482668141	278
0	49557	14085.948675042524	279
0	49591	14098.218344479543	278
0	49607	14099.763477631444	279
0	49616	14102.057904093251	280
0	49623	14103.697627604326	279
0	49626	14105.626336194018	280
0	49695	14121.954280952424	281
0	49717	14127.856782812329	280
0	49726	14128.86527601683	281
0	49763	14139.020237093947	282
0	49764	14139.855528153886	281
0	49767	14141.275118830351	282
0	49787	14145.335126106893	281
0	49803	14149.637737792198	282
0	49819	14152.800178834562	281
0	49823	14153.770292837381	280
0	49827	14154.387441503148	281
0	49843	14159.70868993839	280
0	49846	14160.310156847553	281
0	49862	14166.258087095368	282
0	49877	14168.091812272494	281
0	49879	14169.7068589681	280
0	49883	14170.539417242372	281
0	49894	14171.640067087368	282
0	49970	14187.496623797341	283
0	50008	14196.641870632304	284
0	50016	14197.533336819579	283
0	50022	14197.809914384168	284
0	50061	14212.693129433234	283
0	50064	14214.225590333468	284
0	50081	14216.341792396322	285
0	50109	14225.545105468815	286
0	50110	14225.577039700626	285
0	50115	14226.318385323151	284
0	50119	14227.96604279931	285
0	50143	14234.232809157441	286
0	50155	14236.475355643478	285
0	50158	14236.813169775952	286
0	50211	14252.165623198614	285
0	50218	14253.231069886001	286
0	50219	14253.986720935733	285
0	50222	14254.383806863181	286
0	50228	14257.812006737328	285
0	50231	14258.42500126958	286
0	50247	14261.619220148661	287
0	50274	14267.602758545747	286
0	50286	14270.819088031067	287
0	50309	14278.092795911836	286
0	50317	14281.238144408814	287
0	50348	14291.11716871149	286
0	50351	14291.138880461711	287
0	50361	14295.201437339344	288
0	50383	14304.169012126411	287
0	50389	14304.732432657261	288
0	50428	14317.833669144197	289
0	50435	14319.917503052419	288
0	50438	14320.227510920239	289
0	50503	14337.481470341361	288
0	50514	14343.277080694437	289
0	50518	14343.801115753955	288
0	50521	14343.908105616965	289
0	50533	14347.636367315263	290
0	50573	14360.768393512488	289
0	50582	14363.517887343801	290
0	50602	14366.432627635382	289
0	50666	14391.816140045252	288
0	50672	14392.10646975796	289
0	50718	14412.909422094633	288
0	50721	14412.923716003412	289
0	50764	14427.075610314956	288
0	50765	14427.200218439991	287
0	50768	14427.487372682519	288
0	50788	14432.629621765708	289
0	50869	14450.136840783695	288
0	50892	14454.275924826934	289
0	50921	14461.221559213493	290
0	50932	14466.73335615143	289
0	50951	14474.918250133017	290
0	50955	14475.470679101849	289
0	50958	14476.459925136364	290
0	51006	14490.163980597896	291
0	51021	14493.668809238434	290
0	51024	14495.232410501228	291
0	51049	14504.611748299659	290
0	51059	14505.313962024814	291
0	51087	14516.991540916162	290
0	51094	14519.664760303446	291
0	51113	14525.503934172733	292
0	51184	14545.577754286266	291
0	51189	14548.622253000799	290
0	51197	14550.572121213135	291
0	51222	14558.142877264499	290
0	51225	14558.711830257947	291
0	51234	14560.40853743401	292
0	51320	14582.384913698121	293
0	51321	14582.386497319771	292
0	51324	14583.467531284484	293
0	51410	14610.316603452469	292
0	51476	14630.744697307156	293
0	51481	14631.81377647973	292
0	51498	14637.740524901646	291
0	51502	14637.874246593111	292
0	51518	14640.435293417278	293
0	51583	14660.350791444743	292
0	51625	14670.075080310848	293
0	51668	14682.818104157791	292
0	51674	14685.20735897754	291
0	51677	14686.617615052375	292
0	51691	14692.004821215614	293
0	51732	14701.888313126339	294
0	51776	14712.632731473715	293
0	51777	14713.904640320399	292
0	51789	14715.790632971781	293
0	51819	14724.557490705262	292
0	51822	14724.597746700636	293
0	51869	14741.361685933613	292
0	51871	14741.57475460782	291
0	51875	14743.279483103665	292
0	51881	14747.110159158672	293
0	51906	14751.739284583101	294
0	51936	14759.027417609458	293
0	51940	14764.392875271842	292
0	51948	14767.351176171193	293
0	51965	14771.097143479438	294
0	52023	14784.239852040275	293
0	52035	14786.734872628925	294
0	52038	14786.982903966941	295
0	52117	14813.576916757758	294
0	52121	14814.225642280636	293
0	52124	14814.27592737642	294
0	52130	14814.857110485929	295
0	52177	14827.79570432401	296
0	52204	14835.487060951559	295
0	52210	14837.577276644348	296
0	52217	14840.8761643744	295
0	52220	14841.498252165502	296
0	52253	14847.433675343309	295
0	52297	14858.924119092877	296
0	52341	14876.855208498289	295
0	52344	14877.133097691259	296
0	52405	14894.99899085729	297
0	52418	14897.897219224511	296
0	52421	14898.687182894521	297
0	52431	14902.391221359118	296
0	52442	14907.0367203085	297
0	52459	14912.000128497046	296
0	52462	14913.625912555264	297
0	52480	14917.534603549694	298
0	52485	14918.438256317864	297
0	52494	14919.909114610091	296
0	52497	14919.986478214314	297
0	52522	14927.50858355447	298
0	52523	14927.755780386167	297
0	52524	14927.819174473542	296
0	52527	14927.926670815013	297
0	52533	14929.068440142878	298
0	52569	14938.993126082179	297
0	52672	14966.08209941384	296
0	52679	14967.699167421	297
0	52704	14974.169030996518	298
0	52723	14979.697173759335	297
0	52757	14987.45675503356	298
0	52803	15003.743875010718	299
0	52814	15006.605826975602	298
0	52822	15010.650311193187	297
0	52829	15010.764155468717	298
0	52839	15012.070800871704	299
0	52864	15017.979965352011	300
0	52885	15029.15513602585	299
0	52907	15036.054323723829	300
0	52926	15048.813237404521	299
0	52975	15059.133055387737	300
0	53015	15073.076906301349	299
0	53022	15075.218469936026	300
0	53052	15085.120021136448	299
0	53055	15085.248053226729	300
0	53110	15100.835807777924	299
0	53111	15101.924101364406	298
0	53117	15102.598335539521	299
0	53132	15106.344517093019	300
0	53141	15108.658819836312	301
0	53207	15126.027254135446	302
0	53234	15130.793929685441	301
0	53240	15134.118392561058	302
0	53275	15141.273262437859	301
0	53281	15142.833122600351	302
0	53317	15156.686647889568	301
0	53326	15157.874056653342	302
0	53327	15158.746666213804	301
0	53330	15158.775661089282	302
0	53424	15187.285899259893	301
0	53430	15187.854648231748	302
0	53446	15190.943571095045	303
0	53460	15196.340712290767	302
0	53463	15196.515358192352	303
0	53518	15213.736969461095	302
0	53521	15214.137130329366	303
0	53538	15219.951474223338	304
0	53577	15227.231772206574	303
0	53580	15227.24075846312	304
0	53623	15239.955573956355	305
0	53635	15243.43665989954	304
[...]
19	65569	18535.994340543631	15739.14407096
19	65717	18576.444959801995	15763.653415607
19	65894	18621.711279655982	15799.405183691
19	66163	18689.765934889918	15859.498508856
19	66524	18781.907119367209	15937.331255772
19	66734	18848.904328346698	16002.885097376
19	67005	18925.147843062742	16068.301428095
19	67591	19087.780170014841	16215.49508588
19	68282	19271.996068380546	16395.743154518
19	68585	19366.709119095595	16483.054448388
19	68948	19477.161483303246	16588.619360357
19	69352	19589.361955112005	16691.847150067
19	69718	19696.886051093774	16787.968577771
19	69874	19746.553584143719	16821.489011042
19	70186	19823.96984310174	16892.382444634
19	70462	19907.623956099839	16967.607073929
19	70574	19940.361204654311	16991.248221601
19	70770	19991.411406474465	17039.207801121
19	71251	20112.369533365966	17147.052540264
19	71483	20181.24595445979	17203.619840537
19	71747	20259.089669574307	17256.157296924
19	72169	20379.163295844363	17374.472503953
19	72344	20421.597942537507	17403.740178742
19	72585	20490.813078241101	17460.143194936
19	73033	20609.063908486915	17560.057475356
19	73438	20725.33232411568	17662.085289584
19	73587	20770.197680469586	17706.81630588
19	73987	20890.336612659054	17822.757047977
19	74302	20977.176265207516	17900.376896983
19	74821	21117.781672661663	18021.600849986
19	75032	21178.08206545615	18076.079634572
19	75404	21273.832489989096	18166.835861859
19	75774	21364.309335253756	18242.479259057
19	75942	21411.705477865183	18277.263991846
19	76204	21483.106793910431	18319.027402486
19	76453	21561.616913371689	18392.776184945
19	76817	21655.916496898385	18481.325858216
19	77044	21726.919528635964	18538.595927233
19	77210	21765.685258907225	18575.063802276
19	77513	21845.410910172856	18651.643473409
19	77713	21907.115430638114	18695.662418787
19	77950	21968.8450977068	18747.453314299
19	78093	22019.558448759397	18790.272063826
19	78258	22058.651513535256	18819.870448136
19	78382	22094.681597051376	18844.853477743
19	78745	22199.424862628703	18943.568891112
19	78885	22238.980410372002	18972.177952559
19	78974	22270.602589685484	18997.60578237
19	79371	22395.55461739886	19120.040014019
19	79622	22468.194834572819	19185.330797557
19	79877	22536.061529209856	19239.156293728
19	80333	22675.54199801045	19368.883135231
19	80508	22721.201546083938	19411.432571438
19	80595	22753.92902062964	19435.103607883
19	80831	22819.419525514457	19498.888531167
19	80980	22855.177773504495	19530.459076451
19	81155	22915.116542411401	19574.637951349
19	81303	22955.223472449055	19610.577230274
19	81689	23057.645166643649	19704.278429081
19	81789	23094.515331819604	19730.349750463
19	81962	23137.352829075386	19765.401506076
19	82097	23172.86469615299	19787.345122034
19	82316	23238.255390052271	19844.212173291
19	82668	23341.440543435913	19941.782767904
19	82763	23378.285224312919	19965.463887889
19	82900	23412.004795070537	19993.604352179
19	83028	23442.304126273468	20019.712927915
19	83238	23504.354855340659	20069.285685733
19	83596	23627.02250349413	20175.796908566
19	83757	23661.791247033512	20206.651496501
19	84132	23770.148413306269	20304.477847119
19	84246	23802.696259698795	20330.158125389
19	84495	23870.514085114501	20396.630878248
19	84646	23928.755757261725	20447.822865787
19	84965	24024.126321735196	20534.731422587
19	85222	24091.559560689128	20591.867850904
19	85407	24139.681377105551	20630.096748481
19	85634	24206.903080665551	20694.107828334
19	85784	24253.968341924644	20735.894305404
19	85999	24325.445106348551	20794.547407487
19	86210	24382.341418612089	20843.95001157
19	86633	24496.695729717555	20953.009903585
19	87485	24712.238295460917	21165.582981866
19	87605	24743.985115236582	21185.18134516
19	87745	24788.927740837606	21225.848578932
19	88147	24905.194336184932	21335.822787653
19	88398	24970.191004533108	21399.633391121
19	88573	25027.63815451383	21451.468686468
19	88730	25072.05963947199	21461.678515704
19	89061	25169.789729950415	21556.234177456
19	89377	25254.591318507678	21638.864103237
19	89761	25350.412331858747	21727.662277428
19	90001	25423.306051159313	21786.27287255
19	90152	25471.619808919754	21830.00211955
19	90389	25542.394469010432	21889.463405386
19	90676	25623.260117052868	21953.38151376
19	91057	25756.655294773169	22080.593831791
19	91286	25814.545036793294	22130.994306801
19	91455	25861.423812254447	22167.248103437
19	91658	25906.491977176688	22207.26277912
19	91893	25958.193126177597	22226.721049239
19	92290	26071.203022455808	22336.30669227
19	92498	26130.703639755618	22386.894838609
19	92630	26170.837984110619	22420.430410787
19	93061	26274.790119802197	22511.373570948
19	93220	26318.826136375103	22550.351715301
19	93369	26357.371760295265	22573.841175074
19	93612	26422.740406103814	22626.779092327
19	93730	26456.517504339671	22644.870572981
19	93914	26518.966397852277	22703.183773922
19	94143	26585.065728541329	22749.023237768
19	94368	26639.364825577385	22795.643602405
19	94474	26671.686620040652	22826.250442839
19	94679	26737.329242018461	22881.277088052
19	95026	26822.128494676559	22962.035319765
19	95430	26924.321173580077	23060.905068546
19	95853	27046.515822814742	23178.773083532
19	95962	27082.385640260937	23203.290303779
19	96827	27310.197440328723	23418.434899517
19	96990	27354.097173237538	23456.288188923
19	97117	27389.55474222123	23486.309500218
19	97236	27421.801046403418	23498.700607322
19	98009	27633.345497307861	23706.428683843
19	98254	27706.142504512533	23768.813114477
19	98387	27743.206553560471	23794.915690991
19	98724	27839.101381599667	23883.575670208
19	98943	27895.117257839286	23923.443970528
19	99092	27935.146498380797	23959.111494215
19	99312	27996.50597104555	24010.578645332
19	99415	28032.405486953919	24028.85901518
19	99630	28091.797882251698	24080.929686869
19	99722	28124.445424490284	24107.846365119
19	99831	28164.457580049612	24139.546480406
19	100046	28224.751125770731	24191.484988565
19	100236	28276.246420979409	24232.562850946
19	100599	28376.825247457552	24323.435414044
19	100775	28427.027505314052	24364.023065328
19	101161	28522.335596593579	24446.56532127
19	101356	28569.588842421744	24485.099674666
19	101796	28672.221073109154	24587.035205616
19	101933	28703.567070317874	24612.055582289
19	102223	28779.767774154973	24679.85645466
19	102787	28924.871863616229	24821.683007945
19	102899	28956.836229818347	24844.252062518
19	103335	29067.946867357702	24946.721907777
19	103497	29115.359865172576	24993.181983146
19	103619	29155.154087198354	25027.395421806
19	103863	29211.718065173882	25070.45586017
19	104159	29293.494316526492	25138.591826498
19	104360	29348.502345288724	25187.578532458
19	104458	29383.653096378309	25211.239286157
19	104572	29415.360280809413	25237.490723577
19	104708	29462.967275515517	25273.335878567
19	104954	29533.465614920792	25339.194762794
19	105261	29626.199153048802	25424.706291271
19	105584	29718.284779363343	25507.428283704
19	105708	29755.919804945687	25523.094097905
19	105969	29821.168681561941	25575.481584469
19	106442	29964.168995681984	25716.474393604
19	106557	30001.459898517772	25744.111351763
19	106880	30102.974746663879	25840.298398433
19	107028	30144.723647700538	25872.038418023
19	107444	30266.836334016822	25991.308990922
19	107673	30341.387985620563	26051.745775473
19	108294	30500.053428174632	26206.144512785
19	108879	30668.352492603587	26367.162164021
19	109002	30704.994636945296	26396.71517244
19	109179	30747.982448598772	26423.473449457
19	109566	30861.938226439991	26527.027896209
19	109735	30910.051922331724	26556.262017837
19	109874	30944.736211277729	26581.261567367
19	109999	30976.689671646173	26610.668211866
19	110168	31021.382321644511	26638.128886182
19	110264	31051.642334882313	26660.834069497
19	110524	31135.333715250782	26731.807575672
19	110662	31174.14649295771	26759.046310291
19	111182	31300.383190937788	26873.76125957
19	111421	31352.582617070333	26910.617626627
19	111564	31393.694206245055	26945.128745396
19	111845	31452.812073286236	26982.152743984
19	112081	31519.594639381706	27039.211511687
19	112303	31586.688573399758	27098.577708521
19	112536	31649.994544514233	27147.64320923
19	112821	31738.374741055185	27229.538338237
19	113030	31795.992948481719	27279.733972328
19	113398	31905.903977579267	27383.952051868
19	113628	31977.381222746088	27428.115070667
19	113756	32010.855196579433	27458.039098912
19	113925	32058.398245362466	27488.892371647
19	114099	32107.394986420784	27513.374243417
19	114229	32138.188472031206	27540.591065832
19	114399	32186.175280659424	27567.590820144
19	114489	32216.46799937692	27589.189667605
19	114749	32294.592894822795	27664.349072746
19	114916	32338.198674148738	27703.473214634
19	115021	32372.558619331003	27726.596220098
19	115391	32475.729304771032	27812.481586648
19	115590	32523.227020189575	27854.304355617
19	115918	32612.966650219295	27938.387076139
19	116090	32655.101549999789	27966.778042025
19	116369	32728.720894114871	28034.588758578
19	116505	32770.074845827116	28070.966006594
19	117162	32977.690407355606	28272.913364598
19	117339	33025.179203274777	28306.459455484
19	117521	33083.525722585659	28346.852316925
19	117632	33117.981798281423	28369.575071297
19	117856	33182.961102979069	28419.646836086
19	118279	33292.711210158774	28522.497868941
19	118776	33420.621368709488	28645.137867448
19	119023	33503.306224467651	28721.725921827
19	119443	33613.619553130666	28819.775455327
19	119556	33647.950032332033	28853.099403355
19	119681	33687.621178589288	28880.069169548
19	119887	33746.434060736985	28938.485651358
19	120019	33778.918436981312	28965.02348708
19	120321	33865.560788302446	29048.130500006
19	120607	33948.085842911726	29110.207903397
19	120705	33978.185130436378	29130.177660467
19	120829	34015.659109288174	29154.323432187
19	121001	34061.93010903816	29195.165591085
19	121103	34096.372148589565	29229.252968171
19	121615	34243.468284253336	29362.359418763
19	121952	34337.0476118107	29446.080620369
19	122188	34406.553668189026	29508.732323352
19	122392	34464.320179753828	29560.976537358
19	122704	34555.309668184446	29638.352874231
19	123102	34670.72958319538	29742.109947466
19	123202	34701.842481915247	29769.786254556
19	123346	34732.744930053702	29795.945616979
19	123667	34816.498918097691	29873.615092407
19	123864	34874.11077384247	29915.817322001
19	124007	34913.363616660807	29948.271801977
19	124184	34961.259293282411	29984.484333838
19	124409	35031.224496953976	30046.983781719
19	124572	35089.381242857438	30096.781486112
19	124742	35142.403087457965	30125.24938222
19	125012	35213.707069726421	30194.98874031
19	125196	35263.166097670884	30234.381928078
19	125309	35295.238741287511	30256.320526401
19	125576	35359.957210388384	30310.822429476
19	125726	35401.996832755637	30341.011285882
19	125925	35457.678422724165	30392.35223541
19	126022	35489.160740903706	30413.376087075
19	126416	35606.558678064842	30515.405621326
19	126644	35668.732202143575	30567.751834926
19	127532	35904.310046796149	30800.554104665
19	127734	35957.246925720763	30841.174041698
19	127834	35988.590099980783	30859.241734606
19	127993	36028.80704450228	30885.534829586
19	128151	36077.644706423991	30928.047981563
19	128890	36298.510099106178	31138.908204088
19	129193	36389.887703371732	31217.056325792
19	129285	36421.699044596103	31237.8448991
19	129380	36453.401976533671	31255.638801209
19	129602	36508.373655005203	31298.451153306
19	129999	36614.858885223609	31388.085745796
19	130214	36683.926594361237	31444.330262825
19	130453	36754.863276618953	31506.253148976
19	131013	36911.435618406925	31645.915743348
19	131186	36960.791981033596	31678.392658037
19	131331	37006.465363911067	31722.244781527
19	131554	37070.258082651922	31776.105553425
19	131729	37122.610528627976	31821.765909517
19	131894	37176.980634645957	31851.846813607
19	132108	37245.004125874295	31918.775406343
19	132296	37291.138164550838	31948.789941785
19	132411	37322.699683093191	31975.88658464
19	132534	37356.127760315981	32000.47638625
19	133105	37508.622377267009	32144.405151844
19	133247	37546.810634757339	32169.488322597
19	133386	37591.29648651709	32205.909465031
19	133785	37693.217241356409	32298.436832325
19	134041	37757.946076942636	32352.956172994
19	135092	38072.719794651023	32660.660327607
19	135194	38110.727019941824	32687.251822206
19	135336	38146.39285083579	32709.416044269
19	135484	38193.651916045073	32755.029321034
19	135648	38231.818844118183	32779.995062612
19	135899	38313.573929789518	32858.602757136
19	136016	38347.199094846479	32885.398492151
19	136433	38466.089779996275	32988.576678948
19	136724	38539.019037534503	33049.651586512
19	137052	38627.082494708777	33128.740245904
19	137408	38740.187373684545	33238.728000331
19	137669	38812.824703586248	33299.33836457
19	137985	38905.258641767066	33385.477726079
19	138458	39034.934953604669	33504.558742428
19	138784	39133.903239229807	33596.417844164
19	138933	39177.958906087229	33629.901588032
19	139170	39251.389291278137	33698.096039387
19	139311	39302.594052668151	33729.578627533
19	139584	39379.945862119545	33798.075882987
19	139738	39422.027401236728	33831.859029895
19	139960	39494.319989403672	33892.461114821
19	140106	39536.224300623241	33922.33954144
19	140445	39633.291916610912	34016.397629587
19	140667	39690.056567992031	34050.573383201
19	140977	39771.850030154831	34122.479482479
19	141293	39840.507661968436	34183.73813102
19	141558	39920.449545646491	34260.623444172
19	141681	39955.468011306429	34293.090528335
19	141826	39999.421820122561	34321.730373563
19	142149	40088.547920818925	34404.288983674
19	142422	40160.462140205401	34462.801107484
19	142663	40235.407498795266	34527.935820141
19	142917	40300.46703540006	34587.076344095
19	143055	40345.804774045506	34629.416556372
19	143171	40377.405946007226	34648.230744052
19	143482	40474.287045488238	34733.125812974
19	143759	40557.585476969477	34803.50736482
19	144271	40695.221836759009	34921.480784233
19	144488	40763.716029847592	34983.631231145
19	144694	40818.611479197462	35027.155318143
19	144856	40871.855139356292	35066.848598204
19	145074	40927.109602991166	35100.137209076
19	145166	40958.73980729395	35116.615222847
19	145261	40989.243216278705	35133.504561801
19	145756	41136.980017074468	35270.621246482
19	145971	41184.158977732136	35309.987711785
19	146149	41236.100759000857	35357.750586522
19	146251	41267.644328375199	35384.276485896
19	146348	41300.836192173745	35407.566089544
19	146573	41362.047035836156	35466.665719996
19	146700	41403.609261383876	35498.409904612
19	146988	41494.040757058901	35579.002351878
19	147169	41546.572245600246	35609.456364483
19	147351	41607.287673757306	35656.718299789
19	147452	41645.060612998654	35684.567313088
19	147644	41706.154774036319	35738.124614385
19	147919	41788.840485707053	35811.89664005
19	148043	41827.37005982573	35842.521487716
19	148191	41868.410500773037	35871.648903921
19	148391	41931.557233788835	35931.971896078
19	148493	41962.167285276302	35958.219719631
19	148627	42005.44334545626	35990.760491157
19	148977	42121.061907511674	36091.31872277
19	149136	42172.676362645753	36128.845454683
19	149306	42217.134111888797	36166.883320481
19	149496	42271.65707860568	36210.302102528
19	149643	42319.110154425061	36249.396624149
19	149756	42353.362702789206	36268.305000475
19	149880	42389.018350154674	36299.376405002
19	150037	42441.614100812715	36342.841044083
19	150151	42474.62721054548	36361.722431945
19	150298	42523.027582173541	36403.127610068
19	150921	42712.762062802136	36589.820933289
19	151341	42832.807562797625	36696.383962662
19	151509	42875.211041182947	36732.241515381
19	151952	43007.940394418213	36847.746717687
19	152094	43052.627662770057	36885.769215645
19	152259	43091.093935733984	36922.598025645
19	152412	43131.516884577879	36959.191138927
19	152562	43174.476240049382	36993.189745168
19	152735	43221.969179911689	37026.01251728
19	153009	43297.30996338704	37097.600180891
19	153131	43335.715506094999	37129.016186829
19	153451	43417.506545159606	37207.593967655
19	153635	43469.120757653727	37251.641097749
19	153856	43533.009324075548	37309.586234291
19	154129	43604.210200834935	37371.383973321
19	154354	43667.072111280377	37429.640169742
19	154620	43733.815712964004	37476.197812482
19	154786	43779.593592477683	37512.448583776
19	155047	43850.44767092307	37568.08874538
19	155274	43916.327298008621	37630.130009943
19	155525	43981.173880662896	37680.796091537
19	155700	44032.307543044322	37729.078103417
19	156178	44167.535596129959	37851.919291883
19	156280	44204.353545744686	37884.016205701
19	156396	44246.827557143505	37901.013085843
19	156557	44291.602274817931	37930.612780983
19	156740	44340.199078309984	37971.400621022
19	157213	44486.221710303262	38109.550994646
19	157395	44539.340454833714	38158.209030516
19	157597	44586.745518304173	38198.423444819
19	157973	44696.995009507315	38295.718755481
19	158412	44823.741080406125	38421.673472839
19	158676	44898.402726383641	38490.989803253
19	159234	45051.82664953974	38629.474680078
19	159567	45129.932039324532	38702.241373026
19	159675	45162.4512578709	38724.014840666
19	159811	45205.415305572891	38760.844288945
19	160056	45261.506479345889	38806.209989272
19	160223	45313.027428741484	38843.284427892
19	160801	45488.833960964283	39014.938035294
19	161072	45554.367035921032	39075.5531768
19	161181	45589.97716503786	39093.700869969
19	161301	45623.428031347109	39117.188614321
19	161507	45684.433824180148	39171.467307673
19	161643	45729.894961676353	39209.400101733
19	161941	45814.73566550897	39281.87743196
19	162195	45886.875971521978	39351.549508927
19	162305	45924.604449867722	39378.332414129
19	162774	46059.931043514972	39503.387933568
19	162969	46112.457824850181	39550.165412477
19	163097	46142.908230614879	39569.457257729
19	163544	46258.930110850433	39679.083239261
19	164000	46367.470402377864	39755.659783415
19	164194	46423.105503499578	39799.679288355
19	164348	46464.370922214667	39829.586719826
19	164500	46498.727110405001	39852.277300226
19	164633	46535.607687236134	39885.768650371
19	164821	46605.281941985331	39952.065651731
19	165593	46818.863687336544	40153.836515194
19	166060	46950.022468463361	40280.035653912
19	166290	47014.46335592148	40337.668958002
19	166500	47073.775141694534	40381.675813043
19	166933	47187.015176318877	40488.086539031
19	167194	47248.396615732309	40546.835277331
19	167322	47287.186612844732	40579.196460782
19	167471	47324.413627040476	40604.988191527
19	167749	47412.518927661019	40684.334892605
19	167924	47462.8258294536	40723.236746358
19	168391	47597.532363332025	40847.184118887
19	168552	47641.981979524135	40884.260308774
19	168723	47686.709241724666	40921.707675187
19	168879	47727.401993702581	40945.073544814
19	169328	47863.87006389152	41074.350322431
19	169745	47984.561759421182	41184.564672423
19	170021	48049.573900202754	41220.294804424
19	170202	48100.38681580598	41265.236784645
19	170428	48163.28847093647	41316.526410321
19	171047	48341.8696435624	41491.880689085
19	171270	48406.983881119642	41550.660313585
19	171418	48448.143738052064	41586.249755634
19	171690	48521.866417102498	41642.926175928
19	171851	48572.048474678499	41680.147836531
19	172080	48630.861283079958	41725.200921825
19	172197	48661.433550484623	41745.07571396
19	172680	48801.314077130145	41872.314791319
19	172859	48846.328844868173	41914.215048823
19	173077	48921.840710892662	41976.469890498
19	173307	48988.967370781487	42039.884670782
19	173541	49065.585123652171	42106.324389765
19	173731	49124.790194668995	42160.151221391
19	173926	49177.313622705652	42205.424603351
19	174140	49236.279194957391	42255.360031461
19	174453	49328.732302372222	42343.379635915
19	174673	49391.133105994763	42392.564070207
19	174961	49476.827695132477	42464.749230879
19	175085	49511.699804423012	42493.715276492
19	175209	49556.136472983232	42527.698826486
19	175369	49596.413504473986	42561.854941015
19	175572	49650.514899054509	42607.162780832
19	175702	49686.721784982117	42636.97699624
19	175852	49736.733587892312	42678.845633919
19	176061	49798.548330076987	42706.814700752
19	176361	49875.821189862181	42777.969495758
19	176709	49975.650886600195	42856.873002256

