version 2
run Debugging_quick-0-20211221-22:10:22-7071
attr configname Debugging_quick
attr datetime 20211221-22:10:22
attr experiment Debugging_quick
attr inifile omnetpp.ini
attr iterationvars ""
attr iterationvarsf ""
attr measurement ""
attr network Network
attr processid 7071
attr repetition 0
attr replication #0
attr resultdir results
attr runnumber 0
attr seedset 0
param **.percentage_quick_tills 0.6
param **.quick_checkout_threshold 1
param **.number_of_tills 10
param *.externalWorld.arrival_mean 1
param *.externalWorld.service_distribution 0
param *.externalWorld.service_mean 10
param *.externalWorld.service_std_deviation 1
param **.logging true
param **.quick_tills[*].is_quick true
param **.standard_tills[*].is_quick false

vector 0 Network.supermarket.standard_tills[0] number_of_jobs_stat:vector ETV
attr source number_of_jobs
vector 1 Network.supermarket.standard_tills[1] number_of_jobs_stat:vector ETV
attr source number_of_jobs
vector 2 Network.supermarket.standard_tills[2] number_of_jobs_stat:vector ETV
attr source number_of_jobs
vector 3 Network.supermarket.standard_tills[3] number_of_jobs_stat:vector ETV
attr source number_of_jobs
vector 4 Network.supermarket.quick_tills[0] number_of_jobs_stat:vector ETV
attr source number_of_jobs
vector 5 Network.supermarket.quick_tills[0] response_time_stat:vector ETV
attr source response_time
vector 6 Network.supermarket.standard_tills[0] response_time_stat:vector ETV
attr source response_time
vector 7 Network.supermarket.standard_tills[2] response_time_stat:vector ETV
attr source response_time
vector 8 Network.supermarket.standard_tills[3] response_time_stat:vector ETV
attr source response_time
vector 9 Network.supermarket.standard_tills[1] response_time_stat:vector ETV
attr source response_time
vector 10 Network.supermarket.quick_tills[1] number_of_jobs_stat:vector ETV
attr source number_of_jobs
vector 11 Network.supermarket.quick_tills[1] response_time_stat:vector ETV
attr source response_time
vector 12 Network.supermarket.quick_tills[2] number_of_jobs_stat:vector ETV
attr source number_of_jobs
vector 13 Network.supermarket.quick_tills[2] response_time_stat:vector ETV
attr source response_time
0	3	0.795874504566	1
0	17	6.191932769685	0
0	20	7.684738330527	1
0	23	8.471939470509	2
0	24	9.055824136458	1
0	27	10.350903524712	2
0	34	12.655951615017	1
0	40	13.402245902161	2
0	47	14.330924238182	3
0	67	21.37915020328	4
0	83	26.866247054662	5
0	107	33.392779299942	6
0	123	40.315894876348	7
0	143	50.640502802749	8
0	163	56.386748083597	9
0	203	66.824112226908	10
0	219	70.77022329465	11
0	231	72.018853087492	12
0	255	76.180684962607	13
0	267	82.147094488383	12
0	283	85.099943874906	13
0	284	87.198524595127	12
0	287	87.4262949366	13
0	298	92.107296172992	12
0	301	92.289292936753	13
0	319	95.98126975358	14
0	335	99.266768684474	15
0	355	102.578789567918	16
0	367	110.835532841701	15
0	373	111.625996096432	16
0	380	113.122776907632	15
0	386	118.170029237521	16
0	399	120.927833016591	17
0	415	123.629824137881	18
0	427	126.350521276278	19
0	443	131.593495210536	20
0	465	137.652441709846	19
0	469	137.770840520267	20
0	476	139.165170886564	19
0	480	142.565278033674	20
0	483	146.314309493258	21
0	499	153.583805194707	22
0	519	157.099520666472	23
0	535	162.248153346893	24
0	555	167.238884315852	25
0	571	172.065521991632	26
0	576	173.667441759425	25
0	583	175.213274886207	26
0	627	187.202888289698	27
0	655	194.186065919391	28
0	656	194.573610989019	27
0	659	194.693266042648	28
0	671	196.581757195189	29
0	691	200.947994384489	30
0	706	205.676251298356	29
0	714	207.991376641961	30
0	723	210.546814991592	31
0	747	218.553289677775	32
0	779	231.329434530958	33
0	797	237.350840522883	32
0	802	238.757697951352	33
0	829	249.123406432074	32
0	837	250.227572496208	33
0	848	254.442857976628	32
0	862	256.607873136643	33
0	871	259.056125572678	34
0	883	260.71366499385	35
0	911	267.123244086021	36
0	912	268.232695588057	35
0	915	269.230691690971	36
0	931	270.779848127327	37
0	935	271.777972361785	36
0	938	272.110605219407	37
0	950	274.289860917104	36
0	953	274.860449744548	37
0	975	282.85929091343	38
0	1011	294.436823852691	39
0	1028	298.214467082345	38
0	1032	299.447627141183	39
0	1033	299.48701240218	38
0	1037	300.081089758906	39
0	1067	314.14969567274	40
0	1099	323.834726187077	41
0	1103	324.359466349386	40
0	1106	324.508387227359	41
0	1123	330.326407368721	42
0	1127	331.123805834761	41
0	1131	331.475563568714	42
0	1154	339.468886496861	41
0	1174	343.106959944685	42
0	1183	348.687161412831	43
0	1195	350.69866054753	44
0	1211	351.608173709073	45
0	1223	354.250208431503	46
0	1259	367.073704665114	47
0	1274	370.827030692545	46
0	1277	370.851964041765	47
0	1282	371.906607662713	46
0	1299	379.986910768526	47
0	1307	383.761395050171	46
0	1310	383.887758885845	47
0	1327	391.19042072765	48
0	1342	393.232141963116	49
0	1355	397.417087647711	50
0	1356	398.263756893884	49
0	1363	399.364114067469	50
0	1387	405.394430889274	51
0	1403	409.193854429311	52
0	1419	415.766230744029	53
0	1435	419.933104350478	54
0	1458	427.194567683118	53
0	1461	427.429830501668	54
0	1483	435.898844686921	55
0	1498	439.00218242262	56
0	1529	448.661110951986	55
0	1536	450.602735050807	56
0	1539	451.594239343704	57
0	1551	454.34845388517	58
0	1567	460.012513256342	59
0	1583	465.74107739549	60
0	1597	472.033074353168	59
0	1600	473.936115387006	60
0	1603	474.229066845493	61
0	1635	481.039679711458	62
0	1651	485.034201872593	63
0	1667	488.339557358139	64
0	1687	494.009492558909	65
0	1691	494.301903212803	64
0	1694	494.343396034546	65
0	1703	497.328487986465	66
0	1745	504.866023348514	65
0	1748	506.73101661502	66
0	1751	506.761942906581	67
0	1771	513.649661524762	68
0	1787	518.117319673853	69
0	1792	518.761503938093	68
0	1798	521.667159667576	69
0	1807	522.626361903167	70
0	1831	527.417629077796	71
0	1835	528.534451171373	70
0	1859	538.439309146023	71
0	1871	540.088897581462	72
0	1878	542.941241026149	71
0	1907	553.850013157807	72
0	1931	565.563949976563	71
0	1934	565.583817674567	72
0	1959	573.449385215321	73
0	1975	578.015162784079	74
0	1991	585.760507855795	75
0	2005	595.419642869209	74
0	2011	596.709733454697	75
0	2022	598.124968903626	74
0	2026	598.507766079812	75
0	2051	602.545943901257	76
0	2083	612.518548157892	75
0	2086	614.64922893617	76
0	2092	616.104752230734	75
0	2098	619.865479561475	76
0	2114	624.747285258333	75
0	2117	625.103590697449	76
0	2127	626.057454928186	77
0	2145	631.108165959762	76
0	2148	631.479524935007	77
0	2151	631.534432307558	78
0	2163	635.907979786812	79
0	2175	638.664783027579	80
0	2179	640.872823614378	79
0	2182	640.892030765011	80
0	2195	643.520684212153	81
0	2217	648.887387087837	80
0	2220	650.556233517069	81
0	2231	654.301215300864	82
0	2247	656.051108376205	83
0	2267	658.700924451899	84
0	2275	660.821612391135	83
0	2278	661.203313486749	84
0	2291	665.224479105137	85
0	2303	668.224137759335	86
0	2315	670.638756470021	87
0	2330	674.840818290657	86
0	2341	679.176554801206	87
0	2349	679.887817338329	86
0	2352	680.141448220624	87
0	2356	680.96517548745	86
0	2360	681.099627976769	87
0	2363	681.10936338611	88
0	2383	685.990604034471	89
0	2387	688.705084008971	88
0	2390	689.198971927038	89
0	2406	692.863951139557	90
0	2423	697.409211474021	91
0	2455	706.014218228197	92
0	2460	707.158641932662	91
0	2463	707.540500872184	92
0	2479	710.830319444005	93
0	2491	712.462343497874	94
0	2507	716.634261235924	95
0	2531	723.887159864275	96
0	2547	729.624096733077	97
0	2567	736.398847264999	98
0	2586	742.090369286124	97
0	2589	742.181010026293	98
0	2611	746.439762169704	99
0	2615	747.501955449247	98
0	2618	748.041132728895	99
0	2627	751.873063746683	100
0	2647	759.918906928939	101
0	2654	763.628018367904	100
0	2657	763.666458955627	101
0	2663	765.495904949303	102
0	2664	766.280367730975	101
0	2671	769.202913715935	102
0	2676	771.188320921219	101
0	2682	776.653131123042	102
0	2691	778.605855023663	103
0	2695	779.313040301462	102
0	2701	780.450262109361	101
0	2704	780.700407229784	102
0	2714	784.255172033953	103
0	2723	788.160561699551	104
0	2728	788.653637408675	103
0	2758	797.168164618813	104
0	2767	798.693297522566	105
0	2772	799.276164389426	104
0	2779	799.673577847947	105
0	2786	802.487107389469	104
0	2789	802.821607887348	105
0	2807	810.561429363344	106
0	2811	811.194520990901	105
0	2815	812.701394387258	106
0	2830	813.947035435286	107
0	2859	818.773287420108	108
0	2875	821.529972414742	109
0	2887	822.972735158065	110
0	2899	825.071710432638	111
0	2963	846.266765323005	110
0	2966	847.142078499551	111
0	2968	849.814678839557	110
0	2973	852.100739830724	109
0	2976	852.148930278898	110
0	2982	852.591526378894	111
0	2995	856.152415192794	112
0	3009	858.762776355283	111
0	3015	859.427245696249	112
0	3035	867.347930764079	113
0	3051	871.471216892903	114
0	3056	873.141732864469	113
0	3063	874.573523862457	114
0	3074	880.730894970135	113
0	3081	881.299292454206	114
0	3087	884.395841813603	115
0	3092	885.513530268165	114
0	3099	886.049743099179	115
0	3126	899.191571139393	114
0	3129	900.014908620798	115
0	3147	906.317246387681	116
0	3150	909.126461882255	115
0	3151	910.896286369432	114
0	3157	911.423439352193	115
0	3163	911.969460703459	116
0	3183	918.69912154705	117
0	3195	922.901835870299	118
0	3207	927.231265101674	117
0	3210	927.466631666355	118
0	3219	928.40370497817	119
0	3231	931.114999194908	120
0	3251	935.599867773401	121
0	3271	941.018154866101	122
0	3283	946.724912634521	123
0	3302	953.969626714685	122
0	3305	954.320014550127	123
0	3314	956.163212988575	124
0	3355	970.726974315097	125
0	3383	975.874163703762	126
0	3394	979.846726805731	125
0	3400	982.020119732472	126
0	3407	985.475232417902	127
0	3423	991.536874960455	128
0	3427	992.866686892279	127
0	3430	994.106938070793	128
0	3443	996.542223603316	129
0	3463	1005.527984270899	130
0	3470	1006.215533195708	129
0	3471	1008.023633546399	128
0	3474	1008.029027950386	129
0	3477	1008.733977271762	130
0	3495	1013.383455684603	131
0	3507	1016.5259201821	132
0	3514	1017.615051032807	131
0	3518	1019.91055492923	132
0	3527	1025.492908284842	133
0	3551	1031.454962499935	134
0	3566	1035.152960785626	135
0	3588	1043.544439407737	134
0	3594	1044.620867249492	135
0	3607	1048.316129721399	136
0	3623	1052.488343192444	137
0	3627	1053.804552537616	136
0	3630	1054.760652025901	137
0	3634	1055.631187800756	136
0	3637	1055.799367339396	137
0	3647	1057.402484974844	138
0	3679	1063.8758680898	139
0	3695	1065.561804153746	140
0	3723	1074.239157770174	141
0	3750	1080.731393901087	140
0	3753	1082.642462234854	139
0	3756	1082.885314972546	140
0	3762	1083.380463223502	141
0	3771	1085.286604963908	142
0	3788	1094.457571881173	141
0	3809	1100.845741989357	140
0	3812	1101.109681996531	141
0	3813	1102.783971564478	140
0	3816	1102.789964396612	141
0	3819	1103.945439125359	142
0	3820	1104.188056784482	141
0	3823	1104.658395604487	142
0	3835	1107.493629151178	141
0	3838	1107.704822125882	142
0	3867	1118.819703120642	143
0	3883	1123.188300582854	144
0	3897	1128.599400958768	143
0	3900	1129.830084669342	144
0	3903	1131.951239126188	145
0	3923	1138.703305634572	146
0	3963	1152.631010057874	147
0	3983	1159.14751455732	148
0	3999	1160.608602232624	149
0	4000	1162.3333181074	148
0	4003	1163.648133822758	149
0	4019	1168.243077455072	150
0	4020	1168.492962401355	149
0	4023	1170.417310362206	150
0	4039	1175.445855498487	151
0	4059	1178.831702533919	152
0	4075	1183.255125375393	153
0	4094	1186.826609739606	154
0	4123	1195.581937371659	155
0	4134	1198.45895032041	154
0	4141	1199.080496150324	155
0	4159	1207.27489815304	156
0	4160	1207.460206439303	155
0	4163	1208.322090408532	156
0	4191	1218.231737977335	157
0	4223	1225.065077212515	158
0	4230	1227.396647413382	157
0	4242	1229.842522276118	158
0	4251	1233.545167147565	159
0	4259	1235.24701878586	158
0	4263	1237.369800105364	157
0	4266	1238.941960184563	158
0	4272	1239.983585822481	159
0	4283	1241.593223410199	160
0	4299	1246.765220309791	161
0	4300	1246.838103162102	160
0	4303	1247.280667859798	161
0	4323	1260.262298168778	162
0	4347	1272.17116006626	163
0	4371	1281.434505638683	164
0	4398	1284.049150831332	165
0	4401	1284.45653825341	164
0	4415	1287.703955285662	165
0	4439	1293.771816038674	166
0	4453	1299.881914933508	165
0	4456	1301.598770094939	164
0	4459	1302.489099708074	165
0	4475	1308.081016256227	166
0	4478	1311.489432999072	165
0	4491	1316.433597675747	166
0	4503	1318.757930455226	167
0	4517	1323.52529613162	166
0	4520	1325.463013048911	167
0	4523	1325.471984436245	168
0	4535	1327.323016295972	169
0	4547	1329.053111870581	170
0	4560	1337.389110343805	169
0	4563	1337.66562892037	170
0	4575	1339.31914994431	171
0	4603	1349.402267819332	172
0	4615	1352.174377682104	173
0	4627	1353.889162362316	174
0	4639	1355.705424649868	175
0	4654	1360.467956161042	174
0	4661	1361.332222054556	175
0	4667	1361.863869216796	176
0	4679	1364.935523003288	177
0	4686	1366.46222853155	176
0	4690	1367.718183339962	177
0	4699	1371.752317162496	176
0	4703	1372.34524886114	177
0	4704	1373.589512082297	176
0	4707	1373.641126677639	177
0	4734	1379.152991122296	176
0	4737	1379.625823347778	177
0	4743	1380.343127509073	178
0	4763	1384.412735417415	179
0	4775	1387.405618141266	180
0	4787	1392.736282252846	181
0	4826	1406.467028622868	180
0	4829	1407.689994568272	181
0	4834	1409.616989425797	180
0	4840	1410.478208158376	181
0	4858	1417.397931717992	180
0	4861	1417.871494171491	181
0	4867	1420.074229054291	182
0	4887	1425.289255185002	183
0	4891	1425.895673107418	182
0	4894	1426.143846285836	183
0	4906	1426.812996202707	184
0	4931	1428.26473860468	185
0	4947	1431.151265513852	186
0	4952	1433.21479496239	185
0	4966	1438.649639350523	186
0	4975	1441.495602434629	187
0	4991	1444.841670822723	188
0	5017	1449.915781974696	187
0	5020	1452.274625860323	188
0	5023	1452.449447860357	189
0	5039	1455.769351937878	190
0	5083	1473.334416431817	191
0	5099	1476.382814126147	192
0	5111	1477.73550321926	193
0	5127	1480.772580135268	194
0	5147	1483.797898505529	195
0	5169	1490.554197427283	194
0	5175	1491.58813378328	195
0	5188	1493.856153666354	194
0	5198	1499.867831861139	195
0	5209	1505.516928483519	194
0	5212	1505.868441698696	195
0	5215	1506.576977774136	196
0	5217	1507.591827837018	195
0	5231	1511.164729073772	196
0	5235	1514.038307709174	195
0	5238	1514.372376130252	196
0	5245	1516.587745749057	195
0	5250	1518.403677945196	196
0	5257	1520.331332990333	195
0	5260	1522.094184759942	196
0	5263	1522.127639519069	197
0	5278	1523.532340984926	198
0	5295	1531.602830608037	199
0	5311	1534.768966034048	200
0	5328	1544.370373760002	199
0	5332	1547.342558392811	198
0	5335	1549.252626418054	199
0	5337	1549.486412717909	198
0	5342	1549.770655475172	199
0	5358	1556.52776461578	198
0	5365	1558.67991167593	199
0	5371	1560.068719883568	200
0	5387	1563.032151333647	201
0	5411	1570.070685616087	202
0	5423	1573.254523187552	203
0	5427	1575.611048819385	202
0	5430	1575.689852732842	203
0	5451	1582.375473465066	204
0	5455	1584.902357875399	203
0	5458	1585.377241638631	204
0	5471	1590.885005711959	205
0	5483	1591.647042844101	206
0	5499	1595.777659163723	207
0	5514	1600.526637950354	206
0	5520	1600.731041092751	207
0	5523	1602.183307913866	206
0	5533	1606.87963186024	207
0	5539	1609.578847372496	208
0	5541	1610.036154540356	207
0	5545	1611.597378720192	206
0	5552	1613.034396461015	207
0	5554	1614.108297900517	206
0	5557	1614.154755543771	207
0	5566	1615.35764726867	208
0	5579	1616.451855120076	209
0	5580	1617.823687121414	208
0	5583	1619.074680641974	209
0	5607	1626.274437908209	210
0	5623	1632.089944054822	211
0	5643	1638.453259046759	210
0	5649	1639.883785492043	211
0	5655	1640.83469722662	212
0	5675	1643.706696029798	213
0	5687	1645.758386245419	214
0	5703	1650.761375686623	215
0	5719	1652.325071221731	216
0	5731	1652.997830632729	217
0	5745	1657.077843318012	216
0	5748	1657.376992082433	217
0	5755	1660.58437894813	218
0	5756	1661.418361410197	217
0	5759	1662.208389391925	218
0	5770	1663.653190070763	217
0	5773	1663.902211641073	218
0	5779	1665.324326761657	219
0	5803	1673.162286961117	220
0	5804	1673.464458768352	219
0	5807	1673.815030581659	220
0	5819	1676.47161049057	221
0	5831	1680.208581599465	222
0	5843	1681.582822196591	223
0	5850	1684.000016283819	222
0	5853	1684.54248774523	223
0	5859	1687.032088269332	224
0	5868	1689.213900105057	223
0	5872	1692.220876087464	222
0	5875	1692.96908628226	223
0	5883	1695.192401155961	222
0	5887	1695.67369439958	223
0	5890	1696.221563093555	224
0	5907	1701.268669648733	225
0	5927	1709.632306677512	226
0	5928	1710.284809082455	225
0	5943	1714.578419717188	226
0	5955	1719.461954066599	227
0	5956	1719.836812277132	226
0	5963	1720.326755646297	227
0	5974	1723.407110023739	226
0	5977	1724.646031082567	227
0	5987	1728.484127943734	228
0	5988	1728.706419896168	227
0	5991	1728.816579865318	228
0	6011	1735.394288001485	229
0	6023	1737.024606354334	230
0	6071	1750.315852672071	231
0	6087	1753.675979695469	232
0	6115	1763.734669620209	233
0	6147	1770.885906919208	234
0	6159	1777.205208587935	235
0	6164	1779.722450147317	234
0	6170	1780.797856568406	235
0	6172	1781.177655946339	234
0	6174	1782.925895472042	233
0	6181	1787.491528590293	232
0	6184	1788.77360088486	233
0	6198	1790.519212130568	234
0	6207	1792.194566419335	235
0	6223	1794.971611251095	236
0	6258	1807.321666847967	235
0	6261	1808.002252318849	236
0	6267	1809.625185602681	237
0	6289	1813.862141723217	236
0	6297	1816.522861600457	237
0	6313	1821.970813490672	236
0	6316	1822.249965901368	237
0	6319	1822.442788890168	238
0	6347	1832.400154493674	239
0	6363	1836.380014236991	240
0	6379	1839.322781332839	241
0	6411	1852.808355812407	242
0	6427	1856.757464950118	243
0	6443	1862.352413626456	244
0	6455	1867.777256154766	243
0	6466	1869.066713469602	244
0	6468	1870.05763908985	243
0	6478	1872.47918019236	244
0	6482	1872.904277428782	243
0	6489	1874.599445825209	244
0	6499	1876.228484919633	245
0	6511	1880.000402337043	246
0	6518	1883.310180808627	245
0	6522	1887.818654363117	246
0	6530	1889.416186122659	245
0	6533	1890.080659060183	246
0	6539	1890.951225277502	247
0	6587	1903.650659080311	248
0	6613	1910.606587696562	247
0	6616	1910.983423576397	248
0	6617	1912.988654045621	247
0	6621	1914.626133264416	248
0	6623	1916.596506712617	247
0	6638	1921.041279848063	248
0	6639	1921.393267275567	247
0	6642	1922.248351008965	248
0	6659	1924.338000899619	249
0	6675	1930.4200006073	250
0	6699	1936.310202971168	251
0	6700	1936.885213013437	250
0	6707	1937.600953129654	251
0	6731	1944.671213832905	250
0	6735	1945.129910112256	251
0	6747	1946.914060718576	252
0	6759	1953.090000430093	253
0	6768	1958.070321615994	252
0	6775	1960.18008415778	253
0	6789	1970.427958253205	252
0	6798	1972.313045252212	253
0	6807	1973.499979678872	254
0	6815	1976.682871280342	253
0	6818	1977.190648025893	254
0	6831	1981.365621541027	255
0	6839	1983.729528344076	254
0	6843	1984.435469179984	255
0	6863	1991.830015165472	256
0	6883	1997.947343620837	257
0	6901	2000.658131468509	256
0	6904	2000.927315852458	257
0	6907	2000.990250334321	258
0	6923	2006.374824142507	259
0	6935	2007.588658653939	260
0	6947	2011.330481452313	261
0	6951	2012.591774070619	260
0	6955	2013.347673617047	261
0	6963	2016.78418138663	260
0	6970	2019.067918252322	261
0	6979	2022.383793416127	260
0	6982	2022.841266642039	261
0	6991	2024.909053753338	262
0	6995	2026.862575073011	261
0	6998	2027.878869271724	262
0	7010	2028.964078994538	263
0	7031	2033.828963484214	264
0	7055	2039.312386753826	265
0	7099	2053.04738710278	266
0	7111	2057.479604345808	267
0	7115	2058.731479598436	266
0	7118	2058.760088782543	267
0	7139	2069.049060693797	268
0	7159	2077.896546241859	269
0	7199	2088.365596017626	270
0	7219	2092.877296120985	271
0	7243	2097.442281659526	272
0	7255	2099.806051762034	273
0	7267	2101.798166888254	274
0	7268	2102.115645847231	273
0	7271	2102.360489313221	274
0	7291	2107.304779066413	275
0	7303	2111.563831211717	276
0	7319	2115.213112639926	277
0	7335	2119.242069565314	278
0	7342	2120.205516343402	277
0	7346	2122.489777159596	278
0	7359	2126.099493404842	279
0	7360	2126.707782361901	278
0	7363	2126.916054735914	279
0	7379	2130.192175631312	280
0	7393	2131.855993578588	279
0	7396	2132.470813869537	280
0	7399	2134.256027987122	281
0	7415	2140.177456953177	282
0	7419	2142.460196034055	281
0	7422	2143.189806687195	282
0	7423	2143.802842667632	281
0	7426	2144.213981466197	282
0	7450	2150.015141976888	283
0	7461	2153.188540663574	282
0	7465	2153.864498603368	283
0	7471	2154.115309254867	284
0	7472	2154.31139935167	283
0	7478	2154.930195569033	284
0	7503	2164.158781165877	285
0	7515	2167.376629282972	286
0	7535	2180.489731575662	287
0	7547	2184.146459839188	288
0	7548	2184.510375445723	287
0	7553	2186.083444715648	286
0	7557	2187.941422526848	287
0	7567	2191.419947291452	288
0	7579	2193.703043297081	289
0	7595	2201.054091566859	290
0	7607	2203.711646450475	291
0	7611	2204.272934540671	290
0	7615	2204.947166919785	291
0	7643	2214.458531639188	292
0	7645	2216.180387751682	291
0	7659	2219.242676299344	292
0	7667	2224.278531571132	291
0	7671	2227.351249444125	290
0	7674	2228.790973594309	291
0	7677	2230.320661028963	292
0	7683	2233.205130888118	293
0	7684	2235.878117459166	292
0	7687	2236.684325086042	293
0	7707	2240.097745063651	294
0	7714	2242.605674712889	293
0	7717	2243.13401378082	294
0	7730	2244.460174278805	295
0	7747	2247.689068285512	296
0	7767	2255.287186321342	297
0	7778	2259.351338506615	296
0	7783	2262.420632748654	295
0	7790	2265.351484161738	296
0	7793	2268.632104340831	297
0	7799	2269.030630914251	298
0	7823	2283.141957419397	299
0	7835	2284.985393525586	300
0	7847	2288.486265255682	301
0	7862	2292.94682752639	302
0	7878	2297.688448102223	303
0	7895	2302.82911306153	302
0	7898	2303.210635047751	303
0	7907	2305.367158231348	304
0	7912	2306.60469955171	303
0	7915	2308.348839033447	304
0	7926	2311.170546508755	303
0	7929	2311.329483421806	304
0	7939	2312.984578915771	305
0	7955	2314.471525964647	306
0	7975	2319.78770471761	307
0	7991	2321.705156070585	308
0	8019	2332.809034772028	309
0	8028	2339.120767801065	308
0	8031	2341.148873483483	309
0	8043	2342.331311399121	310
0	8044	2342.76743018217	309
0	8054	2346.175989267615	310
0	8075	2350.542816078706	311
0	8091	2353.026691374891	312
0	8114	2360.709249570621	313
0	8125	2362.392147926696	312
0	8128	2362.712613019769	313
0	8139	2365.904459852603	314
0	8148	2372.28907318101	313
0	8155	2375.132343953957	314
0	8183	2383.425732787108	315
0	8199	2390.310978829755	316
0	8211	2394.798169719227	315
0	8214	2394.942311372378	316
0	8218	2397.085800915115	315
0	8221	2397.29336225019	316
0	8259	2411.497617784858	317
0	8279	2418.569143833545	318
0	8291	2420.910956134313	319
0	8292	2421.903618411466	318
0	8295	2422.028412336005	319
0	8310	2425.852860932624	320
0	8326	2427.46315222469	319
0	8329	2428.654849115749	320
0	8337	2432.104063884944	319
0	8340	2434.1169276859	320
0	8343	2435.042383842159	321
0	8363	2440.435006986056	322
0	8395	2448.849771923997	323
0	8403	2450.704229727868	322
0	8406	2452.889681444065	323
0	8418	2454.707465219802	324
0	8435	2458.170197841954	325
0	8443	2460.945919999733	324
0	8447	2462.784454334373	325
0	8448	2463.532335821652	324
0	8451	2464.2684018014	325
0	8459	2467.939271208729	324
0	8462	2468.17966446154	325
0	8497	2487.351596704354	324
0	8501	2490.278969649797	325
0	8507	2490.861337635066	326
0	8514	2492.688896285632	325
0	8517	2493.482164901458	326
0	8525	2494.513877831557	325
0	8528	2495.902047250431	326
0	8531	2496.737476247891	327
0	8543	2498.567026765192	328
0	8559	2500.818350110685	329
0	8571	2502.391867376954	330
0	8572	2503.052181377654	329
0	8575	2503.483098293543	330
0	8591	2505.829688796064	331
0	8597	2506.274505066573	330
0	8607	2507.840208554124	331
0	8619	2513.360644877542	332
0	8623	2513.593717553838	331
0	8626	2513.748944635092	332
0	8643	2517.884119883738	333
0	8647	2522.050079733027	332
0	8650	2522.534450908205	333
0	8670	2528.076644217632	332
0	8674	2528.705196636541	333
0	8678	2529.772583155408	332
0	8689	2533.399668904062	331
0	8693	2533.630452504472	332
0	8699	2541.25473862806	333
0	8700	2542.453372983024	332
0	8707	2543.551928987688	333
0	8727	2549.756595235473	334
0	8739	2555.060911005491	335
0	8751	2557.153700449798	336
0	8764	2563.627382249127	335
0	8767	2564.26103345274	336
0	8769	2565.466409786301	335
0	8784	2575.479881420317	334
0	8788	2579.834065299326	333
0	8791	2580.64697117906	334
0	8794	2582.624513118032	335
0	8808	2586.608217216963	334
0	8811	2586.948670690066	335
0	8815	2587.966465976951	336
0	8831	2594.465723508487	337
0	8832	2595.409787342482	336
0	8835	2595.935956703434	337
0	8847	2598.581346911468	338
0	8851	2599.164210302724	337
0	8859	2601.123417955431	338
0	8867	2603.020141468317	337
0	8870	2603.226501276747	338
0	8887	2607.279769210667	339
0	8899	2609.613475174247	340
0	8919	2613.328161076818	341
0	8942	2621.464982685001	342
0	8955	2623.319743217252	343
0	8979	2631.985267387917	344
0	8995	2636.073257816102	345
0	9031	2653.139461747166	346
0	9032	2654.077103951788	345
0	9043	2657.608901126216	346
0	9059	2664.756896516539	347
0	9071	2666.834792469809	348
0	9098	2674.808516654183	349
0	9111	2677.371843236556	350
0	9131	2683.185278953279	351
0	9154	2695.671347755832	350
0	9171	2699.229160309636	351
0	9178	2699.806945947003	350
0	9179	2701.140232030831	349
0	9182	2703.459457742261	350
0	9185	2703.87816596572	351
0	9191	2707.651492983802	352
0	9205	2712.842838584767	351
0	9210	2714.239319576528	350
0	9214	2714.742014460287	351
0	9223	2715.65935284717	352
0	9236	2719.294369446588	351
0	9241	2720.701244543647	352
0	9247	2721.694936625642	353
0	9249	2725.286547173202	352
0	9255	2725.822448075746	353
0	9279	2730.63881671115	354
0	9293	2735.624940561078	353
0	9296	2735.727273624986	354
0	9299	2736.043775150493	355
0	9311	2738.020923801896	356
0	9331	2744.061339136147	357
0	9343	2747.533775345368	358
0	9355	2750.247025900615	359
0	9371	2753.39623229505	360
0	9382	2755.237459540378	359
0	9385	2756.558165789009	360
0	9407	2761.187933368844	361
0	9411	2761.364215067557	360
0	9414	2762.561545153007	361
0	9427	2764.70833917864	362
0	9443	2770.353034620704	363
0	9445	2772.563547369359	362
0	9463	2776.814033749886	363
0	9467	2778.058618186646	362
0	9470	2779.770470132261	363
0	9484	2786.280476070441	362
0	9487	2787.743421594159	363
0	9491	2789.124371711361	362
0	9495	2789.665130823809	363
0	9500	2791.999454766878	362
0	9503	2792.762454825846	363
0	9517	2797.581026569676	362
0	9520	2798.34139029992	363
0	9523	2798.952311839667	364
0	9525	2799.98510929938	363
0	9555	2811.061355330753	364
0	9573	2813.629387285804	363
0	9578	2815.282291464414	364
0	9587	2816.999282017817	365
0	9599	2819.698413148127	366
0	9607	2821.422814260484	365
0	9610	2821.608150706608	366
0	9629	2826.156227774748	365
0	9637	2827.1567086512	366
0	9651	2829.528464994377	367
0	9671	2833.378041867244	368
0	9683	2839.396674524255	367
0	9699	2846.019230970713	368
0	9709	2851.110935707914	367
0	9715	2851.749946012457	368
0	9727	2856.846414968056	369
0	9739	2860.13291295113	370
0	9751	2862.629358169155	371
0	9752	2863.535110583331	370
0	9755	2867.272076320796	371
0	9760	2869.956554832853	370
0	9767	2872.99081053319	371
0	9781	2875.671266962291	370
0	9787	2876.252913862494	371
0	9790	2877.023309606955	372
0	9811	2883.214291163619	373
0	9831	2886.243083208403	374
0	9832	2887.914784358271	373
0	9839	2888.542122946053	374
0	9840	2894.416261127292	373
0	9843	2897.372889251284	374
0	9860	2899.130438837108	373
0	9863	2901.394453882876	372
0	9866	2901.990809977108	373
0	9873	2902.278948067093	374
0	9879	2902.432341812214	375
0	9899	2908.623016646839	376
0	9927	2920.552803095136	377
0	9962	2928.72115590414	376
0	9976	2932.708324098784	375
0	9980	2933.269735875967	376
0	9986	2934.606309893483	377
0	10007	2943.693886653642	378
0	10011	2946.745006077398	377
0	10014	2947.027457286496	378
0	10027	2949.618843803347	379
0	10043	2952.203605353885	380
0	10055	2955.656194500222	381
0	10090	2965.316993101527	382
0	10103	2970.692709625761	383
0	10131	2978.706014776297	384
0	10132	2978.990831464592	383
0	10146	2982.290109220101	384
0	10148	2983.455775478493	383
0	10151	2986.390510905426	384
0	10167	2991.775542862205	385
0	10183	2997.991475436637	386
0	10215	3009.415431729297	385
0	10222	3009.989550251795	386
0	10229	3011.55045872672	385
0	10232	3012.359569631415	386
0	10235	3012.944531743907	387
0	10239	3013.781456789173	386
0	10246	3015.437792784527	387
0	10259	3017.13463748216	388
0	10283	3022.045829683841	389
0	10303	3024.178466148178	390
0	10331	3035.768147706752	391
0	10332	3036.080739059517	390
0	10335	3036.427140399849	391
0	10344	3042.017146776598	390
0	10347	3042.31397758693	391
0	10359	3044.266932467953	390
0	10362	3044.634716896293	391
0	10369	3051.358106701985	390
0	10372	3052.682575218417	391
0	10375	3053.128008240139	392
0	10387	3059.764240959012	391
0	10390	3061.087299529427	392
0	10403	3063.247034532103	393
0	10419	3067.321129402071	394
0	10431	3069.797920724818	395
0	10443	3072.565314158675	396
0	10469	3082.817424517692	395
0	10473	3083.899101144886	396
0	10494	3091.989832179158	395
0	10497	3095.146143051479	396
0	10507	3096.401447900538	397
0	10531	3102.221457728462	398
0	10551	3106.614986682188	399
0	10556	3107.517411942994	398
0	10574	3116.6172717389	399
0	10581	3119.11898664814	398
0	10584	3119.653220308316	399
0	10587	3120.349296232517	400
0	10607	3127.892086757277	399
0	10610	3128.543648776978	400
0	10617	3130.920184195654	399
0	10625	3132.483491555933	400
0	10631	3134.441486019189	401
0	10645	3138.851880540863	400
0	10648	3141.777891053842	401
0	10659	3147.718276149102	402
0	10681	3155.768954603338	401
0	10684	3155.882553187667	402
0	10695	3161.464111652182	403
0	10727	3168.127307026538	404
0	10743	3170.107058983957	405
0	10759	3175.473198085372	406
0	10783	3181.913659511012	407
0	10784	3182.08785468629	406
0	10788	3186.177653290766	405
0	10795	3188.742126215113	406
0	10815	3194.033629374092	407
0	10819	3196.651175299937	406
0	10822	3197.307916279566	407
0	10835	3202.651795857206	408
0	10851	3209.271750712884	407
0	10854	3209.808689731106	408
0	10867	3212.182720070423	409
0	10883	3215.018521490344	410
0	10899	3216.706813688648	411
0	10911	3221.962964293003	412
0	10955	3229.286384933822	413
0	10991	3240.246054270356	414
0	11013	3247.311446448855	413
0	11021	3250.569925841319	412
0	11024	3252.119025030471	413
0	11031	3254.631226470679	414
0	11047	3256.214592024965	415
0	11052	3263.620789127187	414
0	11055	3263.670309663509	415
0	11079	3269.144196960799	416
0	11091	3270.641715134219	417
0	11092	3270.891734014296	416
0	11099	3272.996807315535	417
0	11111	3275.467109197096	418
0	11115	3275.589785587095	417
0	11119	3277.984514743853	418
0	11139	3283.394430273724	419
0	11155	3289.477733223171	418
0	11158	3291.464488078726	419
0	11161	3294.617136690309	418
0	11170	3296.905235481571	419
0	11179	3299.75023875159	420
0	11191	3302.103198366508	419
0	11198	3304.591453487401	418
0	11202	3305.505270805936	419
0	11204	3306.559712393108	418
0	11207	3306.658862779461	419
0	11217	3308.681063877019	420
0	11218	3308.696937492897	419
0	11221	3309.164057689272	420
0	11227	3310.268402825379	421
0	11242	3314.356917015201	422
0	11255	3318.624981317692	423
0	11256	3318.630583518989	422
0	11263	3319.003659013085	423
0	11283	3323.092037266362	424
0	11303	3328.684152590739	425
0	11315	3338.61042051176	426
0	11335	3344.278748869451	427
0	11346	3348.578917528638	426
0	11349	3350.407754275035	427
0	11355	3350.696725349319	428
0	11371	3352.588012857135	429
0	11378	3354.819476912339	428
0	11385	3355.012888080845	429
0	11390	3359.061352108783	428
0	11393	3359.200377759448	429
0	11401	3362.820273658009	428
0	11407	3364.129965229715	429
0	11410	3364.165581356442	430
0	11431	3370.342735075302	431
0	11438	3372.678171734835	430
0	11441	3375.300156671509	431
0	11449	3380.675239009336	430
0	11452	3380.968860978368	431
0	11455	3381.050063238773	432
0	11477	3386.7810669958	431
0	11481	3390.418486736694	432
0	11491	3391.875139255489	433
0	11503	3395.178920471579	434
0	11519	3403.146160530639	435
0	11535	3409.08939354784	436
0	11537	3410.784368270225	435
0	11541	3412.53299136988	434
0	11545	3412.821336423723	435
0	11559	3415.927697878932	436
0	11571	3419.558920040889	435
0	11574	3419.870549390254	436
0	11583	3422.591198358683	437
0	11599	3425.569633779065	438
0	11600	3426.854128596	437
0	11607	3427.718108506924	438
0	11623	3435.989976967802	439
0	11635	3440.151898292257	438
0	11641	3445.456087193957	439
0	11647	3448.525107885166	438
0	11653	3449.3849000085	439
0	11659	3451.22559492834	440
0	11671	3452.423500400041	441
0	11691	3457.041647515687	442
0	11692	3458.315728138101	441
0	11699	3458.999040557983	442
0	11711	3459.758353543224	443
0	11727	3463.094403362829	444
0	11739	3467.896507082466	445
0	11767	3477.252809475025	446
0	11791	3481.064704597423	447
0	11831	3492.090239240287	448
0	11846	3494.058048911646	449
0	11863	3499.217407945165	450
0	11873	3503.728351863322	449
0	11877	3505.752546305909	450
0	11891	3508.672846406917	451
0	11907	3512.095174650362	452
0	11927	3515.91449447101	453
0	11943	3521.286031429189	454
0	11950	3523.386949685962	453
0	11953	3523.973954929162	454
0	11965	3528.986211756963	453
0	11971	3530.643317283265	454
0	11999	3537.972658519263	455
0	12011	3540.280954341089	456
0	12023	3541.744792973579	457
0	12051	3545.131165738367	458
0	12063	3546.696153374458	459
0	12068	3548.615375079189	458
0	12071	3549.337314338293	459
0	12099	3558.803770076152	460
0	12111	3560.864914122486	461
0	12119	3564.845142638172	460
0	12125	3566.260155243299	461
0	12127	3566.287757095246	460
0	12134	3567.458569964309	461
0	12143	3568.482538248987	462
0	12159	3570.55761341211	463
0	12179	3574.149496010168	464
0	12191	3576.169468045684	465
0	12239	3589.830572464552	466
0	12251	3591.301790352743	467
0	12255	3592.577696799984	466
0	12258	3595.919713146046	467
0	12262	3596.550692089613	466
0	12265	3597.424394995396	467
0	12271	3600.403753027702	468
0	12303	3609.747406425032	469
0	12327	3614.099083311625	470
0	12339	3615.979015668432	469
0	12342	3616.11397823276	470
0	12363	3622.750054431004	471
0	12371	3626.607973190162	470
0	12382	3631.324670575159	471
0	12386	3631.682796004165	470
0	12393	3637.033178608989	471
0	12403	3640.047396506483	472
0	12415	3643.731246764468	473
0	12443	3652.870226783776	474
0	12447	3654.022802399724	473
0	12452	3655.114921172203	472
0	12456	3656.710654940739	473
0	12463	3658.324121164368	474
0	12478	3667.700819896161	473
0	12482	3669.055071918638	474
0	12483	3669.363885734544	473
0	12486	3669.878603292938	474
0	12494	3671.817919168423	473
0	12497	3674.650010825047	474
0	12503	3675.269710059791	475
0	12531	3683.534866593846	476
0	12543	3686.222290457223	477
0	12567	3691.805437646781	478
0	12574	3695.340481908114	477
0	12577	3698.253772003354	478
0	12582	3700.557374001368	477
0	12589	3704.28204483168	476
0	12592	3704.957183624635	477
0	12595	3705.225015858767	478
0	12635	3725.968870527264	479
0	12642	3729.232203891722	478
0	12655	3733.720023607647	479
0	12675	3738.632258199786	480
0	12695	3746.082573668563	481
0	12707	3747.817253892498	482
0	12708	3748.107023437453	481
0	12711	3748.47793514935	482
0	12713	3749.689067935327	481
0	12719	3750.784006548348	482
0	12737	3755.052271290002	481
0	12741	3756.859500163191	482
0	12742	3758.365643138376	481
0	12746	3759.399412606821	482
0	12759	3763.41654885397	483
0	12767	3764.471699981667	482
0	12770	3764.957700745484	483
0	12783	3768.474421074325	484
0	12787	3770.144575359982	483
0	12791	3770.375003949516	484
0	12811	3777.868888837816	485
0	12829	3782.096981639161	484
0	12832	3782.5966671074	485
0	12835	3783.530585221683	486
0	12845	3785.075817304882	485
0	12853	3786.705584703647	486
0	12863	3789.29207212339	487
0	12874	3794.037977979189	486
0	12877	3795.373201418513	487
0	12883	3796.994499833304	488
0	12900	3801.893264925697	487
0	12911	3803.616054358039	488
0	12935	3811.562403666121	489
0	12959	3813.834447005341	490
0	12971	3815.177062056841	491
0	12983	3821.629182651631	490
0	12986	3822.456628330033	491
0	13003	3831.586318981769	492
0	13019	3836.258403293204	493
0	13031	3838.497636084603	494
0	13043	3840.115389135862	495
0	13045	3840.964008768643	494
0	13049	3843.002130368677	493
0	13052	3843.721223172182	494
0	13055	3845.181282895331	495
0	13067	3850.618349971765	496
0	13087	3856.052153966293	497
0	13099	3860.093174911367	498
0	13111	3863.122689045629	499
0	13123	3864.992338549548	500
0	13135	3867.746606777463	501
0	13136	3870.054961073503	500
0	13147	3874.324306168562	501
0	13159	3876.101027292008	502
0	13183	3883.865621228252	503
0	13199	3891.409679855525	504
0	13215	3893.454616995394	505
0	13219	3895.548555794096	504
0	13230	3899.39387336026	505
0	13239	3903.174547795581	506
0	13251	3907.203000359212	507
0	13267	3911.522895506328	508
0	13303	3921.949686292652	509
0	13304	3923.015971610702	508
0	13307	3923.100439081004	509
0	13319	3923.964936645271	510
0	13334	3928.406918843044	509
0	13338	3929.158695892583	510
0	13347	3929.412139767992	511
0	13379	3939.985558783716	512
0	13399	3948.056109124056	513
0	13415	3952.355443498841	514
0	13435	3955.525711391467	515
0	13436	3956.291155775426	514
0	13439	3956.494700547547	515
0	13443	3958.211678998735	514
0	13444	3959.773513221443	513
0	13452	3961.461685348054	514
0	13455	3961.670040062177	515
0	13465	3965.318943845566	514
0	13468	3965.983449976837	515
0	13483	3970.198223952614	516
0	13499	3972.945853254577	517
0	13511	3973.360683819087	518
0	13522	3977.107198002088	517
0	13525	3979.177036945468	518
0	13535	3982.634949904568	517
0	13538	3983.339065577714	518
0	13551	3986.824030045018	519
0	13563	3989.749822313949	520
0	13571	3992.798204752698	519
0	13574	3994.037336036338	520
0	13579	3995.492689764374	519
0	13590	4001.596782388144	520
0	13599	4003.546471773497	521
0	13608	4005.479815261698	520
0	13615	4009.35003596747	521
0	13631	4013.668751752505	522
0	13638	4014.988344392344	521
0	13641	4016.434790673151	522
0	13655	4020.063690511674	523
0	13667	4025.438474637722	522
0	13670	4026.329759392197	523
0	13671	4026.904294886588	522
0	13687	4032.150750938342	523
0	13703	4033.629710663302	524
0	13747	4047.725363680336	523
0	13759	4052.9643593787	524
0	13766	4053.939940019831	523
0	13769	4055.405008794199	524
0	13779	4058.498662071912	525
0	13781	4060.817341979559	524
0	13787	4061.505491363726	525
0	13801	4065.009544346643	524
0	13804	4065.01332620073	525
0	13807	4065.972050751761	526
0	13843	4075.705302613097	527
0	13859	4081.121390507209	528
0	13871	4083.294423146369	529
0	13872	4083.749854739173	528
0	13878	4084.489167755991	529
0	13891	4088.149385064456	530
0	13899	4091.847690830078	529
0	13902	4092.252053898113	530
0	13915	4096.531233799732	531
0	13931	4098.750855881	530
0	13934	4099.91131949454	531
0	13942	4100.322841207658	530
0	13945	4100.449718583877	531
0	13951	4101.290784116949	532
0	13963	4103.500979714161	533
0	13975	4104.492382405115	534
0	13995	4110.161780129835	535
0	14003	4112.773064665108	534
0	14006	4112.797574961442	535
0	14023	4121.224959580913	536
0	14035	4122.177882026815	537
0	14055	4127.04207535545	538
0	14082	4132.409292310337	537
0	14085	4132.60869826268	538
0	14089	4133.741764382297	537
0	14092	4133.975543566723	538
0	14095	4135.074606789117	539
0	14111	4141.262205003741	540
0	14135	4149.642189321615	541
0	14155	4155.618397510789	542
0	14175	4160.923812830589	543
0	14203	4169.609514078669	544
0	14215	4172.413810220993	545
0	14225	4176.846472899738	544
0	14231	4177.819016013633	545
0	14250	4187.205260500411	544
0	14254	4188.213305961368	545
0	14256	4188.850763045882	544
0	14259	4189.631396948892	545
0	14275	4194.710621490863	546
0	14282	4197.190088055831	545
0	14286	4197.484342425904	546
0	14295	4201.492861777446	547
0	14311	4203.689811604327	548
0	14323	4207.449148178666	549
0	14339	4210.856495659126	550
0	14359	4215.903280746655	551
0	14383	4221.430870763125	552
0	14384	4222.714675907927	551
0	14387	4223.208942673284	552
0	14403	4224.859305233488	553
0	14419	4227.652644235849	554
0	14420	4228.30149387895	553
0	14427	4229.826132001492	554
0	14439	4232.825707040971	555
0	14463	4240.044396066436	556
0	14468	4242.209379985016	555
0	14499	4251.208061966461	556
0	14527	4257.348546755003	557
0	14539	4258.69314180306	558
0	14559	4264.131589838663	559
0	14565	4268.072687155747	558
0	14571	4268.560346766131	559
0	14572	4269.141932604147	558
0	14575	4269.821931057731	559
0	14581	4272.491400906933	558
0	14587	4273.628094748597	559
0	14597	4277.248891418001	558
0	14600	4279.205212917379	559
0	14607	4280.783810380718	560
0	14651	4290.947829950066	561
0	14655	4291.727740482672	560
0	14658	4291.929423821827	561
0	14675	4295.637270321978	562
0	14685	4298.65543104663	561
0	14690	4301.190328582766	562
0	14715	4306.245703370529	563
0	14731	4308.359358987795	564
0	14736	4308.990196265172	563
0	14739	4309.258060698791	564
0	14749	4313.308130649687	563
0	14753	4316.758169591033	564
0	14759	4318.350789342897	565
0	14761	4318.997682378328	564
0	14762	4320.60922979762	563
0	14766	4322.909560945105	564
0	14774	4325.140743211014	563
0	14777	4327.03135811437	564
0	14781	4327.957990854978	563
0	14784	4328.320495821591	564
0	14787	4328.428102781381	565
0	14851	4346.38132544543	566
0	14862	4352.151341643302	565
0	14865	4352.642379549543	566
0	14871	4353.789904494885	567
0	14887	4356.591830805656	568
0	14888	4356.873213175538	567
0	14891	4357.164410005712	568
0	14915	4363.451409837229	569
0	14941	4371.397686613342	568
0	14944	4371.591970213139	569
0	14954	4378.668995254953	568
0	14957	4380.604310400629	569
0	14963	4380.772625345282	570
0	14979	4388.356710173192	571
0	14980	4388.637476005285	570
0	14983	4388.653295105717	571
0	14999	4391.191581996285	572
0	15023	4397.458474228198	573
0	15024	4398.997497332776	572
0	15027	4399.231588097166	573
0	15051	4405.733196528886	574
0	15067	4412.792733309967	575
0	15072	4414.024374711694	574
0	15075	4414.52139124747	575
0	15087	4420.252905650465	576
0	15105	4427.456687756699	575
0	15112	4428.982458357948	576
0	15115	4429.323410094561	577
0	15123	4433.938674395829	576
0	15126	4434.196053769566	577
0	15147	4442.337397049979	578
0	15159	4444.071109031154	579
0	15164	4446.059496010745	578
0	15167	4446.452807094625	579
0	15183	4448.687163243787	580
0	15184	4449.607789141008	579
0	15187	4450.245614856691	580
0	15201	4455.022976776054	579
0	15204	4457.601183269871	580
0	15207	4457.991044121627	581
0	15259	4476.257544781699	582
0	15263	4477.724117142564	581
0	15266	4477.843459469441	582
0	15279	4480.383127695137	583
0	15292	4484.726026702641	582
0	15296	4485.423326654251	583
0	15297	4485.884433716264	582
0	15300	4486.366380453307	583
0	15305	4487.48236404671	582
0	15308	4488.110864878481	583
0	15311	4488.598345084086	584
0	15323	4494.239766961706	585
0	15335	4498.750997852777	586
0	15351	4502.351335284389	587
0	15352	4502.492604955874	586
0	15353	4504.042863847116	585
0	15356	4505.39239584533	586
0	15359	4505.644416226631	587
0	15371	4511.367003288679	588
0	15383	4512.349364524923	589
0	15395	4513.422979058764	588
0	15399	4514.089022817806	589
0	15419	4519.458549791795	590
0	15450	4529.98122979778	591
0	15475	4542.293366838875	590
0	15483	4549.266152078792	591
0	15503	4552.816097667058	592
0	15504	4553.062215435461	591
0	15507	4554.535716849863	592
0	15508	4554.718086894905	591
0	15511	4555.212565634942	592
0	15523	4558.73326799684	593
0	15524	4560.244206184763	592
0	15527	4562.016580222952	593
0	15547	4567.028329007817	594
0	15557	4570.793680646488	593
0	15575	4572.908855058693	594
0	15592	4578.045248401659	593
0	15595	4578.410485901419	594
0	15623	4588.741853966879	595
0	15625	4590.072423701844	594
0	15643	4598.608528473636	595
0	15671	4608.00135625675	596
0	15691	4615.11436889116	595
0	15694	4615.38563754746	596
0	15703	4617.801812029853	597
0	15707	4618.679773369013	596
0	15710	4622.48187249817	597
0	15711	4622.868244739998	596
0	15714	4623.733824029486	597
0	15727	4627.421135733158	598
0	15734	4629.291861278774	597
0	15737	4630.243822076483	598
0	15738	4630.297046414796	597
0	15741	4630.765156888997	598
0	15747	4634.725459514374	599
0	15748	4635.346368173533	598
0	15751	4636.30984544698	599
0	15767	4638.807319586784	600
0	15779	4643.277463804936	599
0	15786	4645.768472624251	600
0	15799	4648.07919355495	601
0	15803	4650.120409352829	600
0	15811	4653.08669989178	601
0	15835	4664.491026525088	602
0	15855	4669.131788564402	603
0	15879	4679.279620167413	604
0	15899	4685.038963659388	605
0	15911	4689.997323893533	606
0	15935	4694.551859387617	607
0	15937	4697.774027020709	606
0	15947	4699.108839233478	607
0	16007	4712.774878186772	608
0	16023	4718.176928402865	609
0	16024	4718.19099591681	608
0	16027	4718.719747791269	609
0	16041	4726.66662378038	608
0	16044	4728.318437931986	609
0	16047	4729.288239048699	610
0	16067	4736.768782117062	611
0	16094	4747.391357406527	610
0	16097	4747.634638362043	611
0	16103	4748.406726983948	612
0	16114	4750.729341226241	611
0	16117	4751.392379836192	612
0	16131	4757.262178567093	613
0	16132	4757.439294134308	612
0	16135	4759.322442715305	613
0	16147	4763.314266892893	614
0	16164	4765.528630843478	613
0	16168	4766.177121724863	614
0	16171	4768.292542478673	615
0	16172	4769.263978120534	614
0	16175	4769.552768662537	615
0	16193	4773.208743226402	614
0	16196	4775.038404612378	615
0	16199	4775.449609839906	616
0	16215	4780.73284407151	617
0	16228	4788.102086597072	616
0	16238	4789.762713232587	617
0	16255	4794.271120873958	618
0	16271	4799.736277657469	619
0	16291	4807.948409379245	620
0	16303	4809.532498216728	621
0	16307	4810.15915187441	620
0	16310	4811.229092365635	621
0	16327	4814.357846608775	622
0	16328	4815.638234019021	621
0	16331	4815.693677707836	622
0	16355	4821.9245328693	623
0	16356	4821.977191856452	622
0	16359	4822.859179829007	623
0	16360	4824.34409710511	622
0	16366	4825.552856213112	623
0	16368	4828.227652229934	622
0	16375	4829.77653587346	623
0	16395	4839.315865648406	624
0	16396	4839.324891238626	623
0	16399	4840.813465606752	624
0	16403	4843.673483288184	623
0	16406	4843.686468260988	624
0	16419	4848.007469969291	625
0	16426	4849.714482944767	624
0	16429	4849.887097255159	625
0	16431	4851.47616885528	624
0	16442	4858.845522331036	625
0	16450	4861.082748428666	624
0	16453	4861.335677101323	625
0	16459	4862.313250786235	626
0	16475	4863.591272651182	627
0	16484	4866.698231561562	626
0	16490	4867.119180418978	627
0	16493	4869.614187838584	626
0	16499	4871.591509791075	627
0	16515	4876.622809630454	628
0	16539	4881.108865490155	629
0	16574	4887.332529185246	630
0	16579	4889.552636700762	629
0	16581	4890.894159478462	628
0	16584	4890.966991441568	629
0	16590	4892.11431350518	630
0	16599	4893.845335604032	631
0	16601	4895.45650266979	630
0	16607	4895.671146256231	631
0	16618	4900.602786546163	630
0	16621	4900.742043062322	631
0	16627	4901.988156698138	632
0	16667	4910.986269732008	633
0	16679	4919.177071327996	634
0	16699	4922.967565613584	635
0	16723	4930.293709315035	636
0	16739	4932.056227359241	637
0	16751	4936.662413354188	638
0	16763	4938.227772412915	639
0	16764	4938.364953242413	638
0	16767	4938.531897353308	639
0	16783	4939.223182156512	640
0	16815	4947.79543919117	641
0	16816	4947.882422639776	640
0	16819	4948.229932236998	641
0	16839	4958.293451841702	642
0	16867	4964.819262871295	643
0	16886	4970.695622357841	642
0	16889	4971.935261133928	643
0	16890	4973.385071336554	642
0	16893	4974.716124059641	643
0	16899	4976.330449543302	644
0	16900	4976.390137174625	643
0	16903	4976.774959444152	644
0	16919	4984.240715234984	645
0	16929	4988.475981081244	644
0	16932	4989.218123540355	645
0	16935	4990.287970415472	646
0	16944	4995.342716832401	645
0	16954	4997.64522030124	646
0	16962	5001.706907975622	645
0	16966	5003.161611810337	646
0	16989	5010.882046656322	645
0	16999	5012.345707519384	646
0	17025	5018.700760118392	645
0	17028	5018.718329415992	646
0	17031	5020.403529429618	647
0	17043	5024.875531352174	648
0	17055	5026.694581219926	649
0	17056	5028.333164994484	648
0	17059	5028.784169592552	649
0	17075	5031.41317626888	650
0	17099	5038.944958667089	651
0	17104	5040.352037674196	650
0	17107	5042.141632102764	651
0	17111	5043.848726953203	650
0	17114	5044.250187861896	651
0	17131	5047.803318549796	652
0	17155	5056.401447180166	653
0	17165	5064.459727827548	652
0	17168	5064.526526310005	653
0	17171	5065.326187314236	654
0	17187	5067.48728382311	655
0	17195	5068.207004065614	654
0	17198	5068.695302567037	655
0	17207	5069.401622057544	656
0	17222	5070.480789519226	655
0	17226	5071.087100847724	656
0	17239	5075.784653828416	657
0	17259	5079.641912694109	658
0	17271	5087.083312095328	659
0	17285	5091.832075941266	658
0	17288	5092.339225340513	659
0	17291	5092.696720917097	660
0	17307	5097.086653267886	661
0	17308	5098.502012750604	660
0	17311	5099.870980273119	661
0	17338	5107.626610802677	660
0	17341	5107.771029637362	661
0	17347	5108.183132543944	662
0	17354	5109.66554382181	661
0	17357	5111.483677294953	662
0	17367	5113.320316712094	663
0	17371	5115.035283707989	662
0	17374	5116.072884022326	663
0	17383	5121.194880147804	664
0	17395	5122.412733681656	665
0	17410	5125.489716264831	664
0	17413	5125.581330367168	665
0	17435	5132.486406300963	666
0	17447	5135.954633047353	667
0	17478	5148.075012059345	666
0	17481	5148.227973199981	667
0	17487	5148.890703158041	668
0	17499	5150.443472970395	669
0	17502	5152.870821053785	668
0	17511	5157.330822871049	669
0	17523	5160.484547425304	670
0	17547	5167.23113727345	671
0	17559	5168.624490259838	672
0	17571	5171.505901303087	671
0	17574	5172.314726353853	672
0	17587	5177.164787287766	673
0	17611	5189.999212293232	674
0	17635	5196.219192528157	675
0	17647	5201.372638089022	676
0	17662	5204.628728516112	675
0	17665	5204.844081642051	676
0	17671	5207.454385100916	677
0	17685	5209.929662243965	676
0	17689	5211.630319441471	677
0	17699	5213.735651129087	678
0	17704	5217.87865964999	677
0	17715	5221.383253070415	678
0	17716	5221.414783719572	677
0	17731	5224.493554384403	678
0	17743	5231.779885976666	677
0	17746	5233.333246789022	678
0	17754	5237.480116009224	677
0	17757	5237.783003601753	678
0	17763	5238.205197757178	679
0	17767	5239.454978913061	678
0	17770	5239.596331535844	679
0	17787	5247.532753022913	680
0	17794	5248.331217966483	679
0	17797	5248.610127643422	680
0	17811	5252.185535533203	681
0	17823	5254.026479664995	682
0	17843	5260.406999643972	683
0	17855	5264.879769739267	684
0	17859	5267.654564508309	683
0	17862	5267.661924013069	684
0	17879	5273.591587521894	685
0	17907	5280.754510277366	686
0	17931	5289.14299773131	687
0	17941	5292.106196196047	686
0	17951	5294.335987651229	687
0	17955	5296.082917056704	686
0	17958	5296.337225452465	687
0	17963	5297.394884258945	686
0	17972	5298.295218641533	687
0	17987	5300.576307516246	688
0	17998	5303.199269050452	687
0	18001	5303.450444653362	688
0	18018	5306.103873839788	689
0	18051	5312.794849181917	690
0	18075	5321.177986312302	691
0	18118	5338.258461569302	690
0	18121	5339.107898615579	691
0	18131	5341.530122176687	692
0	18143	5343.073071743357	693
0	18155	5346.715832658768	694
0	18161	5348.956723567779	693
0	18190	5355.651374065746	694
0	18219	5367.812423077981	695
0	18236	5375.701515252686	694
0	18242	5376.4114425061	695
0	18255	5379.243213476584	696
0	18267	5382.660594253609	697
0	18283	5390.253225452983	698
0	18307	5395.944038402589	699
0	18319	5398.787457653839	700
0	18331	5404.98990394882	701
0	18359	5412.059467043829	702
0	18375	5414.203732768706	703
0	18395	5424.273061745235	704
0	18415	5430.872612113503	705
0	18416	5435.556298115559	704
0	18419	5436.697325710934	705
0	18431	5438.622595011531	706
0	18441	5444.279753800701	705
0	18444	5445.231954367502	706
0	18447	5445.524789758875	707
0	18471	5450.42919617052	708
0	18483	5452.898286165641	709
0	18503	5456.567179973669	710
0	18529	5463.474072325626	709
0	18532	5464.784784321654	710
0	18535	5466.028951571473	711
0	18571	5481.913521485579	712
0	18599	5490.195613817997	713
0	18600	5490.212277272851	712
0	18606	5493.932272048964	713
0	18619	5495.841159012668	714
0	18655	5504.622660407634	715
0	18679	5511.697010011762	716
0	18695	5514.667228053504	717
0	18699	5515.903387501287	716
0	18702	5518.029016241949	717
0	18711	5519.618289297632	718
0	18731	5522.729583393531	719
0	18738	5524.687251723568	718
0	18741	5524.975709370944	719
0	18747	5530.24422703589	718
0	18750	5530.376211176892	719
0	18763	5536.302365848576	720
0	18779	5539.467076254643	721
0	18791	5544.438260990148	722
0	18793	5546.651612462094	721
0	18799	5548.057318055485	722
0	18803	5550.344768115126	721
0	18806	5552.215664836092	722
0	18815	5553.217237316571	723
0	18827	5553.955270283394	724
0	18838	5556.708702445016	723
0	18841	5557.293508577152	724
0	18851	5559.206473350932	725
0	18861	5566.905050087146	724
0	18864	5567.142767933858	725
0	18867	5568.147769381151	726
0	18878	5572.860487470521	725
0	18881	5573.015425134772	726
0	18906	5578.460991640908	727
0	18912	5580.092779349405	726
0	18923	5581.869979132478	727
0	18943	5587.475937286422	728
0	18959	5592.550718169361	729
0	18983	5601.169061960067	730
0	18995	5603.78806935303	731
0	19027	5612.175000123181	732
0	19039	5614.288719734971	733
0	19063	5629.112456041181	732
0	19075	5637.415391978069	733
0	19091	5643.141391163771	734
0	19111	5649.517458424158	735
0	19123	5652.557260477992	734
0	19127	5653.429187104078	735
0	19135	5656.422192436019	734
0	19138	5656.501866743022	735
0	19147	5656.800982852052	736
0	19159	5659.826101474136	737
0	19174	5666.850727075822	736
0	19177	5667.263073786274	737
0	19183	5667.84278616786	738
0	19195	5671.368698234497	739
0	19205	5673.321036936498	738
0	19206	5674.368428096352	737
0	19209	5674.93890360798	738
0	19210	5676.523254867521	737
0	19213	5677.376971974942	738
0	19216	5677.546293496385	739
0	19219	5677.691446559811	740
0	19231	5678.835175975057	741
0	19251	5682.579961524421	742
0	19277	5687.843502033499	741
0	19278	5690.52331142689	740
0	19281	5691.266238169377	741
0	19288	5692.264084914152	742
0	19289	5692.73715619189	741
0	19293	5694.399688529558	742
0	19303	5697.66103272154	743
0	19310	5699.35801385734	742
0	19313	5700.017125080744	743
0	19331	5704.962530133882	744
0	19359	5710.985320730402	745
0	19381	5715.497519475841	744
0	19384	5716.388217673059	745
0	19387	5720.605744509125	746
0	19415	5726.444089293434	747
0	19435	5730.425646471254	748
0	19439	5730.787196618604	747
0	19442	5731.924139224746	748
0	19443	5733.027729879512	747
0	19446	5735.829391160017	748
0	19463	5741.161232513742	749
0	19491	5754.07811214995	750
0	19492	5755.511769539416	749
0	19495	5756.396939163477	750
0	19501	5759.150117176276	749
0	19527	5766.063126744845	750
0	19543	5769.545397977686	751
0	19567	5780.084798702246	752
0	19578	5782.098364834072	751
0	19581	5782.485092453534	752
0	19582	5784.215943009287	751
0	19585	5784.624465918896	752
0	19599	5789.540335937983	753
0	19611	5792.056344238193	754
0	19615	5795.21563880581	753
0	19624	5796.554601768784	752
0	19631	5799.556167196374	753
0	19643	5802.076874082981	754
0	19659	5804.959303271712	755
0	19665	5806.643349465624	754
0	19683	5820.545269212335	755
0	19695	5822.058373826213	756
0	19702	5824.909718907495	755
0	19705	5824.963643735423	756
0	19711	5827.257588027911	757
0	19727	5832.638655387155	758
0	19751	5840.342562489136	759
0	19771	5846.183844994554	760
0	19798	5856.214135976778	759
0	19808	5858.259994934841	760
0	19851	5875.44179376763	761
0	19867	5877.655254020908	762
0	19883	5880.200718490615	763
0	19887	5881.765335947203	762
0	19890	5883.367842479416	763
0	19891	5883.392688126514	762
0	19894	5883.589499704511	763
0	19903	5885.710346258383	764
0	19923	5889.418864638729	765
0	19926	5890.707499300898	764
0	19930	5891.904100109456	763
0	19933	5891.954990859182	764
0	19943	5893.520818117084	765
0	19955	5895.304664810791	766
0	19975	5898.031811699645	767
0	19987	5900.584652684279	768
0	20007	5906.893353571909	769
0	20019	5912.183553841405	770
0	20021	5913.428089956777	769
0	20027	5916.559468966747	770
0	20038	5918.771077105881	769
0	20042	5920.002376976711	770
0	20051	5922.287691117483	771
0	20071	5934.30943096794	772
0	20075	5936.926404802771	771
0	20078	5937.115881117056	772
0	20103	5946.759576062614	773
0	20135	5955.344855536508	774
0	20157	5963.512667359484	773
0	20160	5964.4541816321	774
0	20163	5964.914392075436	775
0	20164	5965.64892287887	774
0	20167	5966.4366291897	775
0	20183	5968.153969624802	776
0	20205	5974.118284387285	775
0	20209	5976.943845657347	776
0	20214	5978.055592045901	775
0	20221	5979.276833586759	776
0	20227	5982.086433534499	777
0	20287	6000.939578497888	778
0	20294	6002.225022587804	777
0	20297	6002.859527372743	778
0	20303	6003.947565644936	779
0	20334	6013.527872286962	778
0	20337	6013.767610930196	779
0	20343	6014.682854299716	780
0	20375	6024.85099105987	781
0	20387	6030.738379231054	780
0	20390	6031.117944229013	781
0	20399	6032.482613661105	782
0	20433	6042.314263041144	781
0	20437	6043.830907962909	782
0	20447	6048.948295577608	783
0	20451	6049.346007698637	782
0	20454	6050.250791407653	783
0	20483	6060.123688439599	784
0	20505	6066.965483491657	783
0	20508	6067.028865881803	784
0	20511	6067.349380097054	785
0	20531	6076.254617584442	786
0	20543	6076.7582551417	787
0	20583	6086.873418422503	788
0	20588	6088.987676864281	787
0	20591	6089.32949077028	788
0	20598	6090.508884657437	787
0	20601	6091.234528938074	788
0	20607	6093.531090168922	789
0	20612	6094.596861301552	788
0	20622	6097.184730965103	789
0	20631	6098.77305672999	790
0	20665	6106.814991319923	789
0	20668	6106.992268659109	790
0	20671	6107.114523757558	791
0	20672	6108.200539294994	790
0	20675	6110.670116967608	791
0	20694	6114.558716622022	790
0	20697	6115.016284346459	791
0	20710	6116.847134801363	792
0	20735	6124.378883997784	793
0	20767	6131.977628685029	794
0	20768	6132.111217690815	793
0	20771	6133.960881276817	794
0	20772	6135.335376113743	793
0	20783	6136.423600135342	794
0	20787	6140.229103834377	793
0	20790	6140.384933357107	794
0	20799	6142.969525801462	795
0	20809	6147.019197295718	794
0	20812	6148.895982025843	795
0	20814	6149.95536857717	794
0	20817	6150.091326750546	795
0	20823	6150.969024738732	796
0	20834	6153.487530996573	795
0	20838	6154.619858134481	796
0	20839	6155.605487152923	795
0	20842	6158.286117165015	796
0	20867	6165.847933688212	797
0	20879	6167.223603645546	798
0	20895	6168.699331528312	799
0	20911	6171.574128975562	800
0	20919	6173.745401568955	799
0	20922	6173.787782377376	800
0	20935	6176.514137336639	801
0	20947	6180.929774398552	802
0	20955	6182.674087068353	801
0	20962	6185.011787893878	802
0	20998	6199.258460915691	801
0	21001	6199.549608977741	802
0	21007	6199.90590100621	803
0	21023	6205.874568845838	804
0	21039	6209.31839044486	805
0	21043	6209.429391866716	804
0	21046	6209.912577504806	805
0	21059	6212.864695907735	804
0	21062	6213.10665160324	805
0	21083	6217.479659904624	806
0	21095	6221.979922497564	807
0	21107	6224.042184639497	808
0	21131	6232.503731443521	809
0	21139	6234.112314893159	808
0	21142	6234.598096484079	809
0	21151	6235.653560381089	810
0	21171	6240.148557340447	811
0	21183	6246.154069108206	810
0	21187	6247.590834471673	811
0	21188	6249.082872975678	810
0	21191	6249.837389533064	811
0	21197	6254.682946942568	810
0	21203	6255.386593875733	811
0	21204	6255.851495157859	810
0	21211	6257.617900482053	811
0	21215	6258.652162093127	810
0	21218	6259.880453513184	811
0	21235	6263.25419939565	812
0	21243	6266.97913037847	811
0	21246	6267.145008701679	812
0	21248	6270.402442666493	811
0	21258	6276.931198615346	812
0	21267	6279.301959584232	813
0	21291	6282.896671753198	814
0	21311	6286.197288065952	815
0	21327	6289.088568746834	816
0	21350	6299.065497263121	815
0	21353	6300.377789125749	816
0	21357	6301.110959958614	815
0	21361	6302.676906537414	816
0	21367	6305.890187589953	817
0	21391	6314.762577184479	818
0	21407	6317.048709242284	819
0	21423	6319.64203776748	820
0	21439	6324.390033784072	821
0	21455	6329.593735613383	822
0	21483	6338.280845132571	823
0	21497	6341.617944800519	822
0	21500	6342.226971882566	823
0	21503	6342.306878518756	824
0	21514	6346.995285578466	823
0	21517	6347.692781767653	824
0	21527	6350.343133986287	825
0	21529	6353.606480480475	824
0	21539	6358.101071446522	825
0	21540	6358.163281033478	824
0	21543	6358.625672179642	825
0	21555	6360.989493835329	826
0	21573	6366.651639798517	825
0	21576	6367.094713366993	826
0	21579	6367.412711427084	827
0	21595	6371.397873316887	828
0	21596	6371.643459749708	827
0	21599	6373.448122417768	828
0	21618	6376.670715657445	829
0	21639	6380.745111285049	830
0	21643	6382.002043382963	829
0	21644	6383.465178258365	828
0	21647	6383.626860057872	829
0	21650	6383.844949026566	830
0	21659	6385.50383279602	831
0	21666	6387.536133584713	830
0	21669	6388.322073485404	831
0	21675	6390.695557591033	832
0	21701	6399.236337901659	831
0	21705	6401.276254026661	832
0	21711	6401.888475653658	833
0	21723	6403.629478015887	834
0	21747	6412.291630066494	835
0	21775	6422.495735265357	836
0	21789	6425.909233232396	835
0	21793	6427.370593263095	836
0	21799	6427.690666298438	837
0	21819	6434.633306101569	838
0	21843	6441.441749683151	839
0	21855	6445.42865739628	840
0	21856	6446.416684618381	839
0	21858	6448.249206789013	838
0	21862	6449.568832390371	839
0	21871	6451.16163214495	840
0	21872	6451.302767130026	839
0	21875	6453.469017500421	840
0	21889	6455.824247315785	839
0	21892	6455.829136123837	840
0	21922	6466.629958085715	839
0	21925	6466.734049949092	840
0	21931	6468.012416266882	841
0	21943	6469.840687710235	842
0	21979	6477.149430164632	843
0	21999	6487.868740218225	844
0	22011	6489.904366555541	845
0	22023	6492.500583795667	846
0	22039	6495.708431916139	847
0	22051	6497.140303479985	848
0	22066	6498.275631067252	849
0	22075	6503.655379004465	848
0	22078	6504.977196707476	849
0	22087	6507.515469117514	850
0	22088	6507.792986866939	849
0	22091	6508.164941686446	850
0	22127	6514.508177066455	851
0	22155	6524.920214645154	852
0	22168	6531.708079151644	851
0	22171	6531.852862704334	852
0	22191	6535.666605205349	853
0	22203	6539.825139111167	852
0	22210	6541.673838396865	853
0	22219	6545.075426488037	854
0	22235	6547.056210312067	855
0	22247	6550.218862901504	856
0	22254	6551.015770115825	855
0	22261	6552.803761017574	856
0	22267	6557.625304065492	857
0	22283	6558.797554530584	858
0	22299	6561.828716874604	859
0	22306	6562.931934121562	858
0	22309	6562.967483519094	859
0	22319	6565.779132217656	860
0	22331	6566.40471770313	861
0	22343	6573.776106733162	862
0	22345	6574.557145027444	861
0	22351	6574.858108781334	862
0	22367	6579.377123062968	863
0	22391	6583.494499731418	864
0	22395	6584.053354054017	863
0	22406	6587.081401186928	864
0	22421	6593.138775476498	863
0	22423	6598.954951910334	862
0	22426	6600.112905600138	863
0	22429	6600.293358656411	864
0	22430	6600.654973972009	863
0	22437	6602.587354339357	862
0	22438	6603.752432076228	861
0	22441	6604.787915402	862
0	22447	6605.77754934956	863
0	22453	6606.979506517635	864
0	22459	6609.396569729704	865
0	22471	6611.824551832691	866
0	22484	6616.174656202056	865
0	22499	6622.298044512818	866
0	22519	6628.312230044927	867
0	22524	6631.508333165605	866
0	22527	6631.907055836223	867
0	22547	6636.618485928141	868
0	22559	6642.81849173205	869
0	22579	6649.458812570679	870
0	22611	6656.396947930889	871
0	22615	6658.309816511205	870
0	22618	6660.071832825467	871
0	22633	6665.361360684544	870
0	22636	6665.683538120854	871
0	22639	6668.80216259063	872
0	22641	6669.12509195767	871
0	22647	6670.034470767463	872
0	22661	6674.658639231559	871
0	22671	6680.075062281689	872
0	22690	6683.199031925198	873
0	22709	6689.021421202189	872
0	22712	6689.805246829776	873
0	22715	6690.830864425417	874
0	22738	6698.920361141376	873
0	22741	6698.928637287398	874
0	22756	6700.4245133624	873
0	22761	6700.924776380576	874
0	22767	6701.5613384017	875
0	22779	6703.679177081532	876
0	22780	6703.762391209027	875
0	22783	6704.172763577047	876
0	22788	6706.245613048859	875
0	22791	6707.066782491347	876
0	22803	6713.812484946149	877
0	22819	6719.42347144088	878
0	22831	6723.496096883061	879
0	22849	6733.113758305964	878
0	22852	6733.122840686614	879
0	22855	6733.470968345605	880
0	22864	6737.370868330191	879
0	22867	6739.156646914884	880
0	22875	6740.299005624773	879
0	22885	6741.480371403536	880
0	22899	6744.586647971433	881
0	22904	6749.387029418032	880
0	22907	6750.348244444942	881
0	22916	6752.69015960161	880
0	22919	6752.797192270822	881
0	22939	6757.76694519978	882
0	22979	6772.030402531924	883
0	22985	6774.290767558599	882
0	22995	6777.334122100881	883
0	23011	6780.15248770657	884
0	23023	6782.564996408245	885
0	23043	6787.835453619481	886
0	23053	6790.214539504615	885
0	23057	6791.950051609385	886
0	23079	6798.821666401959	887
0	23101	6809.356599213041	886
0	23104	6809.441998666016	887
0	23107	6810.716936196447	888
0	23119	6813.567950928783	889
0	23128	6815.923769067368	888
0	23131	6816.591610747071	889
0	23151	6825.172618573716	890
0	23167	6829.279095779076	891
0	23183	6835.150031161343	892
0	23193	6837.707630414809	891
0	23197	6840.422910121533	892
0	23201	6841.745987312857	891
0	23202	6844.406441778447	890
0	23205	6844.737991191789	891
0	23209	6845.189710448338	892
0	23215	6846.329015588477	893
0	23227	6849.119902488112	894
0	23239	6849.988954477152	895
0	23252	6853.700528082857	894
0	23258	6853.907026229063	895
0	23271	6860.118122668156	896
0	23281	6861.546341844716	895
0	23284	6861.893982418031	896
0	23287	6862.422160240335	897
0	23307	6865.619288999039	898
0	23327	6879.992742610182	899
0	23366	6894.852015325372	900
0	23387	6903.667797872443	901
0	23407	6907.401573497613	902
0	23419	6911.190838728479	903
0	23427	6914.179455663489	902
0	23430	6916.22396898052	901
0	23433	6916.357836524777	902
0	23439	6918.440782999547	903
0	23475	6929.351302776766	904
0	23490	6932.351385572816	903
0	23493	6934.080934458458	904
0	23503	6936.048239100397	905
0	23559	6951.070593279283	906
0	23563	6952.017284318225	905
0	23570	6955.55199542696	906
0	23595	6964.638973277657	907
0	23615	6969.465778924495	908
0	23627	6973.48923522572	909
0	23647	6979.08627364845	910
0	23667	6983.333388235447	911
0	23668	6983.575102663268	910
0	23671	6984.050665448306	911
0	23683	6985.57713154149	912
0	23695	6988.95765971787	913
0	23711	6991.0951129994	914
0	23727	6998.569035787388	915
0	23729	7000.197840848463	914
0	23738	7000.734454329013	915
0	23742	7003.665148435179	914
0	23751	7004.25142936893	915
0	23767	7011.51799728436	916
0	23779	7012.698583979407	917
0	23795	7017.984527931032	918
0	23811	7023.734004730524	919
0	23823	7027.281656858129	918
0	23827	7027.459623278692	919
0	23843	7030.745611932037	920
0	23850	7031.864008652478	919
0	23853	7032.588620079573	920
0	23863	7034.351410942302	921
0	23895	7040.556729433162	922
0	23907	7042.653585392299	923
0	23919	7045.223873054915	924
0	23943	7052.362382781683	925
0	23948	7053.548886550502	924
0	23955	7055.758999138313	925
0	23967	7059.56251866056	924
0	23970	7060.835467493006	925
0	23985	7064.37263689889	924
0	23989	7065.740445971918	925
0	24005	7070.239003738442	924
0	24009	7072.408214646378	925
0	24039	7084.464775014594	926
0	24071	7094.949470942253	927
0	24110	7105.754718903101	926
0	24113	7107.048462553938	927
0	24127	7108.642699731356	928
0	24128	7109.104188511006	927
0	24131	7111.24942367531	928
0	24155	7120.299875132132	929
0	24167	7125.634955780608	930
0	24181	7131.227271782262	929
0	24184	7134.154419064462	930
0	24187	7134.628737293928	931
0	24199	7138.692230355629	932
0	24229	7145.813043730877	931
0	24232	7148.391739788939	932
0	24235	7149.260196210767	933
0	24239	7150.254606551938	932
0	24242	7150.336835844563	933
0	24259	7155.338313562116	934
0	24271	7159.805061178663	935
0	24299	7169.666461168124	936
0	24319	7175.7612746219	937
0	24337	7184.814071378081	936
0	24340	7185.906155135364	937
0	24343	7186.795618023001	938
0	24359	7191.821662035686	939
0	24366	7193.795072729712	938
0	24369	7194.514208605767	939
0	24375	7195.25925725514	940
0	24386	7200.572434347704	939
0	24389	7200.97137609303	940
0	24393	7202.824937018659	939
0	24396	7202.967176756189	940
0	24399	7204.035081563487	941
0	24415	7206.938366901538	942
0	24426	7210.085742053449	941
0	24432	7210.575518466985	942
0	24439	7211.62916114698	943
0	24451	7214.347006722115	944
0	24475	7216.473860966796	945
0	24495	7223.113543123527	946
0	24505	7225.444170915416	945
0	24509	7226.806452802128	946
0	24515	7227.365055962839	947
0	24519	7227.978261506144	946
0	24526	7229.400582927828	947
0	24531	7231.240108673998	946
0	24538	7233.380437484549	947
0	24547	7234.705093058026	948
0	24571	7239.271429321594	949
0	24582	7241.556484853519	948
0	24585	7241.897846195129	949
0	24594	7242.521095006382	950
0	24605	7245.047692417353	949
0	24608	7245.632011377334	950
0	24611	7246.048417515788	951
0	24620	7249.113652858429	950
0	24623	7250.108871159955	951
0	24634	7252.256028193611	950
0	24637	7252.802248095886	951
0	24645	7256.616214940528	950
0	24648	7256.864264068198	951
0	24651	7257.18180604848	952
0	24687	7265.835461602268	953
0	24719	7276.100796445396	954
0	24737	7284.275188977519	953
0	24744	7287.280598475962	954
0	24747	7288.755953142645	955
0	24770	7293.398736234412	956
0	24795	7301.845973017741	957
0	24807	7303.026124528318	958
0	24832	7311.329091295582	957
0	24838	7311.962660820207	958
0	24849	7315.733387389758	957
0	24852	7316.637574876554	958
0	24855	7316.747437606571	959
0	24871	7319.060518493377	960
0	24872	7319.067778961844	959
0	24875	7321.455574161857	960
0	24893	7327.084719336202	959
0	24896	7328.361053917989	960
0	24899	7329.303848169663	961
0	24927	7333.866507170496	962
0	24937	7340.21126510904	961
0	24940	7342.472089885066	962
0	24943	7343.323184355478	963
0	24956	7346.047040438161	962
0	24959	7346.593209234176	963
0	24995	7362.4463720821	964
0	25007	7366.033007081631	965
0	25019	7370.638971440728	966
0	25031	7374.125687426907	967
0	25043	7375.180948181155	968
0	25047	7375.492854670406	967
0	25053	7376.093863532955	968
0	25063	7377.550475531609	969
0	25091	7385.055718161985	970
0	25111	7389.777386319786	971
0	25139	7398.813265817357	972
0	25179	7405.87582729245	973
0	25187	7408.71240199291	972
0	25190	7409.98417983186	973
0	25199	7411.947287254429	974
0	25221	7420.455586598267	973
0	25229	7421.616327360955	974
0	25235	7422.058714236746	975
0	25236	7422.364360555385	974
0	25239	7423.518043909593	975
0	25255	7430.207976287451	976
0	25283	7438.242599565088	977
0	25295	7442.743903257495	978
0	25311	7447.707420380786	977
0	25314	7447.800746591574	978
0	25321	7448.925444161638	977
0	25327	7449.344162822317	978
0	25335	7453.116065916054	979
0	25351	7459.288653638755	980
0	25367	7463.452345580651	981
0	25391	7470.322306331857	982
0	25407	7475.168020009703	983
0	25434	7480.779482731555	984
0	25459	7489.53988154535	985
0	25480	7494.941041956719	984
0	25490	7496.963910483965	985
0	25507	7502.60275166594	986
0	25519	7504.247716219573	987
0	25532	7506.53879635723	986
0	25539	7508.058298238159	987
0	25540	7508.119143187193	986
0	25543	7508.150087575158	987
0	25555	7510.59430484577	988
0	25567	7516.135275842073	989
0	25579	7516.977107605226	990
0	25580	7518.935554086758	989
0	25583	7519.976696704192	990
0	25592	7525.944735974628	989
0	25595	7525.996922443777	990
0	25627	7532.629832507649	991
0	25659	7542.502126003713	992
0	25664	7544.911306024287	991
0	25675	7549.03868799602	992
0	25676	7549.962807108791	991
0	25679	7550.039806886913	992
0	25701	7557.531389488246	991
0	25704	7557.560884015781	992
0	25709	7558.558614439903	991
0	25712	7558.600158072151	992
0	25718	7559.459052178731	993
0	25731	7562.682153117717	994
0	25743	7564.487017217963	995
0	25755	7566.923206489852	996
0	25771	7569.706628471425	997
0	25783	7570.993109678794	998
0	25787	7572.100369471739	997
0	25790	7572.290515680909	998
0	25811	7574.459195342526	999
0	25830	7577.755951796015	1000
0	25840	7580.118140660752	999
0	25841	7583.948594075798	998
0	25844	7584.557057097133	999
0	25847	7584.755079073164	1000
0	25854	7587.406138679743	999
0	25857	7587.765588457905	1000
0	25867	7588.849290489297	1001
0	25901	7596.067418744202	1002
0	25907	7599.503106605155	1001
0	25910	7600.063733311509	1002
0	25912	7600.785996772992	1001
0	25918	7601.391603907369	1002
0	25931	7604.389273166541	1003
0	25948	7613.777487238615	1002
0	25951	7613.794243608573	1003
0	25961	7617.909205204719	1002
0	25964	7618.11112881195	1003
0	25967	7618.256560584977	1004
0	25977	7623.25616820347	1003
0	25980	7623.369180385646	1004
0	25983	7623.404759242963	1005
0	26003	7629.024765670191	1006
0	26023	7636.226548832029	1007
0	26035	7637.594103947736	1008
0	26036	7637.744584792694	1007
0	26039	7641.818060712955	1006
0	26046	7646.206643808263	1007
0	26055	7650.161112253243	1008
0	26076	7660.999586572338	1007
0	26078	7663.001195597782	1006
0	26081	7663.211544164328	1007
0	26094	7669.570007689459	1008
0	26095	7670.347423580748	1007
0	26098	7670.60710059489	1008
0	26107	7672.202397168635	1009
0	26127	7677.272291109178	1010
0	26128	7677.395156325803	1009
0	26141	7682.152087180964	1008
0	26144	7682.265140658178	1009
0	26151	7684.170773861244	1010
0	26171	7688.482686154014	1011
0	26197	7695.697700417664	1010
0	26200	7697.447584222177	1011
0	26203	7698.456526307218	1012
0	26211	7704.402162422885	1011
0	26214	7704.532132290564	1012
0	26223	7706.604545980812	1013
0	26247	7713.774750275546	1014
0	26259	7715.039223075073	1015
0	26268	7718.891691295056	1014
0	26271	7719.088476434366	1015
0	26299	7728.703212856869	1014
0	26302	7729.55671946017	1015
0	26311	7732.059291897222	1016
0	26323	7736.024988088972	1017
0	26330	7739.855033182934	1016
0	26335	7741.556011189678	1017
0	26339	7741.957151044179	1016
0	26342	7742.81610869913	1017
0	26343	7745.029059626358	1016
0	26350	7748.097631932741	1017
0	26359	7749.576037863437	1018
0	26379	7754.036145599588	1019
0	26407	7763.69195207965	1020
0	26427	7770.645024820055	1021
0	26447	7774.761226327439	1022
0	26448	7775.55139188007	1021
0	26454	7776.161264008661	1022
0	26462	7778.94798124766	1021
0	26465	7779.349681807675	1022
0	26471	7780.815685177962	1023
0	26483	7783.039152128953	1024
0	26495	7785.914597874685	1025
0	26500	7788.259394981454	1024
0	26506	7790.645851807634	1025
0	26515	7791.66811473258	1026
0	26529	7797.294303356735	1025
0	26532	7797.303660502873	1026
0	26535	7797.348435024289	1027
0	26540	7800.232656344734	1026
0	26547	7804.288587611695	1027
0	26559	7807.492650356532	1028
0	26579	7813.062142413179	1029
0	26580	7814.765051026415	1028
0	26583	7817.172344048636	1029
0	26590	7821.229387839339	1028
0	26593	7822.419901743468	1029
0	26607	7824.705363209166	1030
0	26635	7834.583327428599	1031
0	26636	7834.774875531123	1030
0	26639	7835.020532514396	1031
0	26659	7839.260749585676	1032
0	26671	7841.764417615967	1033
0	26683	7843.651201972771	1034
0	26698	7846.216099202653	1035
0	26715	7847.738952145951	1036
0	26735	7854.165359713134	1035
0	26742	7856.213961830048	1036
0	26763	7859.408173607227	1037
0	26791	7865.521053568452	1038
0	26807	7868.491912616801	1039
0	26824	7874.417929286338	1038
0	26828	7876.40492516451	1039
0	26831	7876.66326715131	1040
0	26843	7880.704938803576	1039
0	26851	7882.489915634842	1040
0	26874	7888.71001808175	1041
0	26911	7901.049220442182	1042
0	26935	7906.315078160292	1043
0	26951	7907.619837025927	1044
0	26987	7915.978852219833	1045
0	26999	7919.068613140119	1046
0	27000	7920.556501318031	1045
0	27003	7921.813903615428	1046
0	27015	7925.394459347276	1047
0	27031	7929.238968608468	1048
0	27047	7931.651122927645	1049
0	27051	7932.234304064777	1048
0	27054	7934.235759205226	1049
0	27063	7935.971897012077	1050
0	27064	7937.640837309385	1049
0	27067	7937.654518366259	1050
0	27072	7939.494669887198	1049
0	27075	7940.570717909315	1050
0	27095	7945.667261595712	1051
0	27115	7950.168621310493	1052
0	27116	7950.515985617381	1051
0	27119	7950.538557317569	1052
0	27135	7955.544877114304	1053
0	27151	7959.403272138581	1054
0	27175	7965.30639283661	1055
0	27186	7971.321458554311	1054
0	27189	7972.779654591151	1055
0	27195	7973.706172588461	1056
0	27211	7975.900104747075	1057
0	27223	7977.438669553121	1058
0	27235	7981.470715934183	1059
0	27259	7987.553136802056	1060
0	27270	7989.618646762159	1059
0	27273	7989.862283784937	1060
0	27295	7998.179669439398	1061
0	27305	8000.160985156969	1060
0	27309	8000.241299673501	1061
0	27315	8001.117668928966	1062
0	27331	8003.936311538559	1063
0	27342	8005.008834659115	1062
0	27345	8005.726402009717	1063
0	27351	8007.198795512774	1064
0	27364	8009.716243518473	1063
0	27368	8010.731062331151	1064
0	27371	8011.402941340345	1065
0	27378	8015.654200046042	1064
0	27381	8015.895525937659	1065
0	27387	8019.838924938827	1064
0	27390	8020.978730863919	1065
0	27407	8024.333431985943	1066
0	27427	8031.029933880504	1067
0	27443	8034.52260749486	1066
0	27446	8034.71975405177	1067
0	27471	8038.749915889599	1068
0	27494	8046.31262808631	1067
0	27497	8047.014442590903	1068
0	27531	8063.299403307202	1069
0	27553	8069.412976987009	1068
0	27556	8073.315045068997	1069
0	27559	8073.508237386951	1070
0	27567	8075.947196114687	1069
0	27570	8076.05719362847	1070
0	27579	8079.338458025797	1071
0	27594	8081.54366201011	1072
0	27607	8083.259369173191	1073
0	27611	8084.008870202128	1072
0	27615	8086.679088030436	1073
0	27650	8094.543203109544	1072
0	27654	8095.514246437564	1073
0	27663	8096.95804386111	1074
0	27695	8107.476207599835	1075
0	27707	8108.363348174638	1076
0	27719	8110.489462428817	1077
0	27739	8114.357220508992	1078
0	27751	8116.494828901827	1079
0	27752	8117.192476562296	1078
0	27755	8117.520917029693	1079
0	27771	8125.205945411317	1080
0	27787	8131.715273460261	1081
0	27799	8138.41968734095	1082
0	27807	8139.724668011899	1081
0	27814	8142.026296329407	1082
0	27831	8146.881842563341	1083
0	27832	8147.514220928363	1082
0	27835	8147.591878187443	1083
0	27859	8154.568243538854	1084
0	27860	8155.022013458068	1083
0	27867	8157.717379412704	1084
0	27871	8158.931974611228	1083
0	27874	8159.789665399909	1084
0	27876	8161.783646453919	1083
0	27882	8163.85424524837	1084
0	27895	8167.48298290563	1085
0	27907	8170.854065932842	1086
0	27923	8173.680687370472	1087
0	27943	8178.562153805661	1088
0	27963	8180.091352436111	1089
0	28003	8188.37717876838	1090
0	28019	8194.767734165103	1091
0	28035	8196.38672322	1092
0	28060	8204.966609369691	1091
0	28063	8205.81336165496	1092
0	28075	8210.879417315255	1091
0	28084	8213.865225200085	1090
0	28091	8216.185055167483	1091
0	28094	8216.27475783974	1092
0	28103	8219.248783538519	1093
0	28107	8224.39227687923	1092
0	28110	8225.161178429014	1093
0	28121	8227.88531120232	1092
0	28128	8229.833015756228	1093
0	28147	8235.420041258366	1094
0	28175	8245.889872106913	1095
0	28199	8254.266305103018	1096
0	28204	8256.444818716387	1095
0	28211	8257.497479838101	1096
0	28243	8264.578414530714	1097
0	28247	8265.101770488653	1096
0	28250	8265.438733781488	1097
0	28259	8269.562776187	1098
0	28271	8270.904922211538	1099
0	28283	8272.57627741916	1100
0	28298	8278.982872703121	1099
0	28302	8280.272875889113	1100
0	28311	8282.790112452305	1101
0	28331	8289.094706476182	1102
0	28341	8292.88950383496	1101
0	28345	8294.03096226854	1102
0	28354	8295.021310403047	1103
0	28367	8296.718770076522	1104
0	28379	8298.348735754562	1105
0	28403	8305.471644333655	1106
0	28423	8310.369401589078	1105
0	28426	8310.552296439383	1106
0	28439	8314.523622798456	1107
0	28455	8318.308591070837	1108
0	28467	8319.163809876429	1109
0	28473	8322.773680313027	1108
0	28479	8324.863426217223	1109
0	28480	8325.519824012997	1108
0	28483	8326.04971186251	1109
0	28499	8331.167806072536	1110
0	28511	8334.528940932148	1111
0	28527	8340.831301469103	1112
0	28555	8350.744376069653	1113
0	28571	8357.335188037409	1114
0	28584	8360.567723485417	1113
0	28587	8361.81691046684	1114
0	28601	8364.313295060112	1113
0	28604	8365.339480433787	1114
0	28607	8365.718975408999	1115
0	28627	8372.171763828558	1116
0	28631	8372.480924573323	1115
0	28634	8373.163927652004	1116
0	28637	8374.370987395852	1115
0	28647	8377.107286283783	1116
0	28667	8381.671360226084	1117
0	28691	8390.48778476116	1118
0	28702	8392.930690787875	1117
0	28711	8394.727710851277	1118
0	28715	8395.695585694971	1117
0	28718	8396.611980134507	1118
0	28731	8399.082665688455	1119
0	28743	8402.006562954033	1120
0	28755	8404.596415565336	1121
0	28775	8408.55053170301	1122
0	28795	8411.834628741186	1123
0	28811	8419.704847626435	1124
0	28831	8422.453403030804	1125
0	28843	8426.186575155491	1126
0	28855	8432.008811835708	1125
0	28858	8433.074776826955	1126
0	28870	8434.453171722476	1127
0	28883	8436.391625153925	1128
0	28899	8446.121806757618	1129
0	28919	8455.017003342408	1130
0	28933	8461.684686093847	1129
0	28940	8463.500600615533	1130
0	28947	8467.572955667103	1131
0	28954	8468.927352275886	1130
0	28957	8468.95374029267	1131
0	28971	8471.159309559208	1132
[...]
9	18845	5558.575323082686	3207.9981519968
9	18874	5570.249972390211	3216.6514102503
9	18894	5577.00520563573	3219.9560313381
9	18916	5580.566631317066	3219.1769718939
9	18961	5593.637681770501	3223.6071497091
9	18977	5597.64830606715	3222.0224056745
9	19002	5605.558553063149	3229.0120688475
9	19004	5607.562708899385	3229.8056593229
9	19052	5619.630734424032	3237.6444997417
9	19065	5630.332890462362	3245.6332420576
9	19098	5647.799360090505	3258.5810082567
9	19124	5652.762295767538	3260.1033185352
9	19232	5679.144435992839	3284.4240076385
9	19270	5685.883561726967	3286.7015665203
9	19332	5705.110875122345	3301.6139729192
9	19394	5721.022722277497	3313.625728575
9	19450	5738.212288295064	3325.5917159033
9	19468	5744.873137698558	3328.709989606
9	19500	5758.770626246999	3340.2014218417
9	19513	5762.991743107243	3339.8600529331
9	19586	5784.898220572463	3358.8904253242
9	19613	5793.812326957928	3356.8016086756
9	19628	5797.918299497931	3356.6873387429
9	19673	5817.491362546194	3375.1058565458
9	19728	5833.542247335019	3387.9824119436
9	19762	5842.997900626943	3396.292342672
9	19810	5859.614753954836	3410.7328982103
9	19814	5861.505553877263	3410.9285877786
9	19816	5862.822813900719	3407.1287408713
9	19823	5865.94135623093	3405.601386448
9	20020	5912.953352159219	3452.4527687684
9	20093	5942.436379417478	3478.1103681653
9	20107	5947.459701760385	3475.2055460508
9	20109	5948.471927912997	3471.4633369879
9	20139	5956.703319330999	3474.7793589098
9	20198	5971.861134284718	3489.0699089142
9	20206	5974.899244880031	3483.4250262694
9	20234	5983.815145197825	3487.0394120447
9	20246	5988.203441756479	3489.1862990027
9	20247	5989.513326691127	3488.6903108794
9	20254	5992.304357753942	3488.3299601451
9	20263	5994.88685581214	3487.6676277194
9	20266	5996.458115931595	3488.4324055438
9	20360	6019.122823067963	3505.5982108853
9	20404	6034.306176899905	3518.5078528644
9	20408	6035.612154424155	3513.7953088058
9	20434	6042.52769960358	3515.8847755339
9	20474	6057.77587841137	3519.632640591
9	20547	6079.401199108667	3535.6878206938
9	20558	6081.628574759712	3530.5411573866
9	20562	6082.862419159762	3527.6443447319
9	20633	6099.291927495418	3515.6362201967
9	20658	6105.45298767321	3514.5915821171
9	20736	6125.701593028074	3529.6626108565
9	20747	6127.925672869841	3529.1483966144
9	20757	6129.280587515745	3526.5793883961
9	20774	6135.957835998648	3533.0889403304
9	20813	6149.494357689141	3541.5734145825
9	20848	6160.654315700588	3551.0192504456
9	20954	6182.501719608423	3569.6535791262
9	20963	6185.127172299833	3567.3450959281
9	20982	6189.511208765968	3567.6148475721
9	20986	6193.778649107553	3564.745693774
9	21014	6201.685247935073	3569.6748995776
9	21050	6210.600041264492	3571.1879177698
9	21052	6212.133510387833	3559.3425657522
9	21070	6215.360903141558	3558.4594768686
9	21184	6247.25468499619	3588.0588091427
9	21196	6252.244033434001	3590.5433457032
9	21279	6282.01754339707	3616.5472557622
9	21292	6283.150610262992	3615.268758733
9	21331	6293.08996564538	3621.8874010543
9	21341	6298.265138787846	3624.3086673842
9	21358	6302.035322107315	3626.1962290065
9	21379	6310.414759655637	3630.7482044963
9	21433	6324.144887979939	3633.0703556839
9	21460	6331.127954287057	3639.2541635139
9	21484	6338.936183357238	3641.906774406
9	21528	6351.239518096063	3651.9314768034
9	21630	6379.24118048645	3671.3596463113
9	21758	6417.718901890674	3704.0339193345
9	21766	6420.415805516181	3705.606452386
9	21790	6426.453841599845	3710.5052052477
9	21809	6431.378352998406	3705.0443314655
9	21833	6439.099991034471	3710.9498696535
9	21857	6446.79527060239	3714.6599096917
9	21894	6456.689296090186	3719.945451294
9	21899	6458.388585584108	3720.3402101845
9	21913	6462.821500151903	3720.4890985544
9	21963	6473.660740264007	3728.871411171
9	21989	6485.292883298347	3737.1219501616
9	22033	6495.080853061621	3744.8331099431
9	22096	6509.550925316147	3755.7933042385
9	22111	6512.633614795635	3752.1572559509
9	22162	6527.242193945184	3765.97278357
9	22172	6532.682995020072	3765.129868103
9	22179	6533.78929896736	3760.0977369981
9	22284	6558.951725111392	3781.3538475329
9	22355	6576.847432064314	3788.7782942628
9	22475	6612.863575728718	3819.0223978572
9	22477	6614.104456560414	3807.0788941002
9	22486	6616.543725891442	3805.3811277991
9	22503	6623.229387190626	3807.6264830688
9	22513	6626.586603346164	3809.5473091061
9	22584	6650.779812287428	3829.9292302105
9	22648	6670.223999497124	3839.9565734632
9	22659	6674.224821956635	3842.8969267408
9	22723	6692.430516005164	3858.7149664078
9	22787	6704.56576789706	3857.210808016
9	22859	6734.917812953115	3880.9849905599
9	22887	6742.216600252792	3884.9939042313
9	22929	6754.607578000087	3894.2499367836
9	22969	6768.06831624203	3898.2153673825
9	23024	6782.936813751003	3909.8200437325
9	23058	6796.083522863566	3922.8110587497
9	23073	6798.589529316078	3921.4352623522
9	23084	6801.014873857874	3917.4904093362
9	23158	6825.701544615544	3937.3949673994
9	23265	6857.758822275189	3960.2440172302
9	23291	6862.991600829668	3958.4464857194
9	23311	6866.471053723351	3961.5453498167
9	23368	6897.192224003856	3988.2747506806
9	23391	6904.183981045227	3984.8746350798
9	23428	6914.494206842692	3991.0553736547
9	23440	6919.973133058762	3995.0213731156
9	23462	6925.745254857226	3999.6935900741
9	23518	6942.609925086237	4010.4103413899
9	23602	6966.511100228551	4026.4942180575
9	23628	6974.402048309655	4028.0473179465
9	23658	6982.230628883829	4032.1965074337
9	23741	7003.410136556809	4051.0967296463
9	23758	7005.775314636647	4048.8845135103
9	23786	7013.988536547592	4055.7883928191
9	23796	7018.221506724764	4059.0661327972
9	23812	7024.097640411337	4060.6801361917
9	23816	7025.529481409202	4061.2524052847
9	23824	7027.336531957589	4059.8893238405
9	23882	7039.081556875481	4068.0720094497
9	23921	7047.610089720748	4075.5992547384
9	23959	7057.542022365957	4076.0608059542
9	24001	7067.838314427701	4081.2288433539
9	24006	7071.713692644268	4076.6814309618
9	24014	7073.515844143484	4074.4892185285
9	24019	7076.772953750239	4063.6572998034
9	24046	7088.897138519709	4071.0393747239
9	24073	7096.730902220392	4077.9024539435
9	24089	7100.925563663956	4078.6567415609
9	24097	7102.682326057712	4078.5426471808
9	24132	7113.624480074994	4084.4218844142
9	24205	7141.435292773442	4111.1325772189
9	24225	7144.646085426761	4101.610722557
9	24278	7163.917650096683	4119.7581790533
9	24310	7173.452415725697	4120.0332968091
9	24326	7178.495293438449	4121.4988367309
9	24350	7191.313966682422	4127.9325920926
9	24506	7225.639375879413	4158.0598111973
9	24555	7235.645067445234	4164.0332007248
9	24578	7241.333849864939	4168.0874252876
9	24688	7266.1451791645	4189.3458109395
9	24702	7271.111618388923	4179.2079279139
9	24831	7311.284591947251	4215.1037692719
9	24977	7357.220424996894	4259.4061288567
9	24985	7359.846919313149	4257.0925843887
9	25096	7387.204183465419	4280.2075553352
9	25124	7392.907370963546	4271.2048161919
9	25140	7399.219420311124	4275.9172998356
9	25148	7400.939550998106	4272.2329717318
9	25165	7403.064376729296	4265.5382788715
9	25170	7405.366006910525	4260.9162476277
9	25222	7420.516485640339	4272.7215160342
9	25246	7424.872857959185	4273.3281140498
9	25302	7445.273233972113	4281.1938425479
9	25304	7446.793696133342	4278.2815796883
9	25392	7470.556986887339	4300.095755828
9	25464	7490.250787648613	4317.135955542
9	25533	7507.114344864408	4331.5659674604
9	25588	7523.251784649552	4344.2753386432
9	25660	7543.538365146003	4355.2147637428
9	25693	7554.614288080649	4363.9928314498
9	25697	7556.823487672	4364.3371458403
9	25797	7573.314575659789	4380.2930189668
9	25835	7579.362824600785	4383.4926000489
9	25877	7591.13885691636	4385.9646022345
9	25919	7602.624454603726	4394.0676113963
9	25932	7604.967492558856	4396.1820236138
9	25933	7606.760782081416	4394.5577151578
9	26017	7635.230105738278	4419.2234225145
9	26038	7640.679322370376	4420.8273108889
9	26056	7650.332420955803	4422.2187961895
9	26063	7656.719982826563	4425.1703531896
9	26130	7678.83432256065	4444.5451767408
9	26155	7686.027091457014	4444.4192625655
9	26182	7693.291301287115	4447.5954451965
9	26193	7694.469472501036	4439.80873395
9	26291	7727.059300995195	4464.3245432842
9	26331	7740.155692530289	4476.3443076649
9	26363	7750.100038295735	4480.5350791075
9	26408	7764.096817699903	4490.785846485
9	26539	7799.797397046582	4524.2827936669
9	26560	7808.899415218438	4529.1849291939
9	26647	7837.203841760883	4557.3308478815
9	26723	7850.820499913051	4567.2277328772
9	26817	7873.10213629446	4573.239293838
9	26836	7878.462878807137	4567.6883731003
9	26848	7882.196933037224	4565.1940084663
9	26886	7891.547640050282	4572.7222273031
9	26915	7902.069639710067	4582.9469445194
9	26974	7912.871207905766	4589.0728740142
9	27016	7925.517334978892	4598.4064179574
9	27152	7959.513069236425	4628.6206272437
9	27236	7982.0592895404	4642.3616224596
9	27244	7985.784619268843	4643.439343535
9	27289	7997.243742136744	4652.5974999616
9	27332	8004.346309531333	4653.6492167643
9	27439	8033.609650729789	4680.2429131667
9	27505	8051.538077264053	4686.0619017037
9	27535	8063.777362194276	4691.8260391949
9	27566	8074.286965071845	4689.9117690098
9	27612	8084.433212808303	4698.9136386894
9	27641	8089.998791126081	4699.4141354001
9	27836	8147.795688670429	4754.5039160764
9	27924	8174.746203685749	4778.627794754
9	27944	8178.752704196309	4775.3317221098
9	27967	8181.393634142058	4768.1082049473
9	28007	8191.027797215663	4772.6273543237
9	28048	8201.463015208286	4782.4025825986
9	28055	8203.876953315671	4780.7741461726
9	28070	8207.055583281059	4782.9072394048
9	28079	8213.269893097694	4784.5892585268
9	28130	8230.998672831177	4795.929503223
9	28134	8233.744293480653	4797.4237913392
9	28152	8236.913612824813	4789.9089400661
9	28193	8251.177503932469	4799.7015353368
9	28216	8260.030755994662	4807.0429274889
9	28223	8261.143005289492	4802.1861484356
9	28230	8263.039216199962	4804.0068505753
9	28297	8278.103558041519	4817.9310599466
9	28416	8309.062748405164	4843.3921822181
9	28468	8320.046736742071	4851.578828932
9	28521	8339.423258289416	4865.5400514229
9	28528	8341.743605671519	4864.6146185918
9	28576	8358.568961507362	4880.8555458005
9	28638	8374.612114166108	4894.0797803689
9	28707	8394.273142287866	4912.3740837987
9	28722	8397.255760482258	4909.5768815287
9	28756	8404.917911269342	4911.5623461256
9	28802	8417.833815182891	4923.0512665209
9	28884	8437.100454884014	4937.4087450992
9	28965	8470.190884420474	4962.685049429
9	29020	8483.939974825166	4974.3553462002
9	29105	8503.146175842309	4990.3509235108
9	29212	8532.302588279594	5017.4232869919
9	29253	8545.749805782192	5027.6757692613
9	29338	8572.141376779482	5053.1298217128
9	29350	8574.887654642189	5053.4082774897
9	29363	8578.613275695803	5051.2192770147
9	29455	8605.328766002173	5074.4404697818
9	29465	8608.759490292994	5074.2192064497
9	29469	8611.173391300236	5076.4149505086
9	29511	8624.618275731714	5087.2582092143
9	29515	8626.578088029606	5088.423018049
9	29526	8629.507498208316	5088.5696256986
9	29534	8634.198922943252	5091.4622989262
9	29564	8641.864296159207	5098.1536155781
9	29586	8646.211164059372	5100.9811472023
9	29609	8651.499417970019	5100.2901115703
9	29640	8657.752203097719	5098.9563840707
9	29701	8671.0168100514	5111.9412672806
9	29740	8683.857560223121	5120.7783983175
9	29829	8710.008791171391	5142.5411199184
9	29839	8715.31796315006	5146.2617794738
9	29843	8718.616283977851	5148.0919372264
9	29888	8727.83300158647	5156.7904362955
9	29902	8731.408787779912	5157.0915528599
9	29931	8737.9690689874	5158.9861931192
9	29950	8745.2443347253	5161.0355696443
9	30046	8776.342303791678	5186.911482701
9	30055	8778.434121631176	5188.5732124899
9	30056	8779.587601496491	5187.3134527374
9	30072	8785.995190165214	5181.6846660374
9	30076	8787.160258374593	5174.1290159721
9	30080	8788.283295234849	5173.6725659974
9	30163	8812.512320536924	5196.7851052659
9	30220	8826.510675149525	5209.593093134
9	30263	8833.091447427173	5213.7524254958
9	30297	8843.464380444622	5219.7120992624
9	30315	8851.550375883383	5220.1503349356
9	30379	8861.744268339087	5221.2370578438
9	30460	8886.758083246441	5241.2119398268
9	30537	8906.979414700921	5254.0483510762
9	30668	8938.334048385322	5272.6933974366
9	30709	8953.067040120244	5281.3642450692
9	30832	8991.17994804033	5315.1184850583
9	30882	9001.750455613879	5324.6941000974
9	30891	9005.80926092928	5324.3469728958
9	30938	9022.349187220744	5338.7984572287
9	30962	9026.797209815203	5339.0559027345
9	30975	9031.529793827423	5342.8637792179
9	30983	9035.094978601658	5342.1391422796
9	31017	9042.724405707171	5326.0746558272
9	31057	9052.281924374868	5327.8719800326
9	31058	9054.399953175053	5327.445775523
9	31100	9065.064137514334	5330.9276819169
9	31117	9069.836839170471	5335.1054390836
9	31168	9082.687259402325	5342.6926662129
9	31200	9092.546776673257	5345.6530318443
9	31236	9104.820001846596	5353.4638036236
9	31241	9107.546334140258	5343.1510696541
9	31255	9112.247944707844	5343.9809918169
9	31266	9115.17540050027	5345.9968258661
9	31289	9125.890861730808	5350.1085606259
9	31312	9131.548020857874	5353.5102740012
9	31368	9141.21549607706	5361.9944827638
9	31445	9161.989741371862	5377.5183512155
9	31472	9169.552467369569	5380.6324988528
9	31562	9193.500351909157	5403.8205240457
9	31628	9210.659590831766	5411.004024132
9	31654	9217.577893456668	5417.6244357887
9	31658	9219.187617233054	5415.4527627865
9	31677	9223.847713711426	5412.4099008265
9	31713	9233.498313207385	5421.8513818484
9	31729	9237.312307272606	5424.4835788248
9	31745	9242.476698992169	5428.588326615
9	31810	9260.319239995771	5444.5366160652
9	31814	9261.387125146543	5442.0330160238
9	31852	9269.404231032597	5436.2579291275
9	31937	9288.648266679666	5451.9794257347
9	31948	9293.318084380675	5454.3141655948
9	31963	9302.552882798751	5457.1167055969
9	31968	9305.06809684185	5454.0538227294
9	31987	9311.346682602254	5457.1871811273
9	32015	9320.545489435669	5461.7267603621
9	32032	9325.884217289823	5465.6391610637
9	32141	9355.082125547971	5491.6660205136
9	32202	9371.551719905955	5504.8626100892
9	32250	9385.679061293351	5511.1841530078
9	32375	9419.210436130453	5543.0524069735
9	32454	9442.770586795188	5557.6359957816
9	32679	9507.859672528841	5616.0971317172
9	32729	9516.905018030436	5623.4934661655
9	32747	9523.106924272907	5628.8550907866
9	32780	9533.237658268248	5629.9924162651
9	32820	9541.74367040156	5632.887237767
9	32855	9549.923439501767	5638.0629902882
9	32889	9558.602129206629	5645.2549531473
9	32901	9563.051249351215	5646.1714263656
9	32916	9566.877083655225	5643.5089668939
9	33167	9627.318355342209	5700.4015418769
9	33205	9639.492296839282	5710.1276461118
9	33214	9641.296807554481	5710.4007074282
9	33222	9643.18516284107	5704.0047656939
9	33332	9666.857507715076	5722.7854097718
9	33356	9670.748859255494	5725.4838001262
9	33407	9687.205206153759	5741.3448510487
9	33420	9690.337749636668	5742.1565919578
9	33496	9704.937360981135	5751.9066966445
9	33513	9710.922636012457	5755.7853241738
9	33538	9715.271770842244	5758.1657082478
9	33646	9754.747773102388	5793.0154538541
9	33653	9756.793726975206	5787.2325112962
9	33673	9760.869670775701	5789.3635517722
9	33677	9762.813634896229	5789.7274445168
9	33719	9775.456178535923	5800.180658828
9	33732	9778.361680604348	5802.0454851991
9	33767	9794.387312148166	5809.7954341333
9	33774	9798.123153329358	5812.8767804261
9	33812	9808.523283920689	5820.8272456789
9	33818	9812.673718823569	5820.0668072444
9	33874	9830.989582798673	5827.3093948653
9	33939	9847.958838598038	5837.090643215
9	33955	9859.842682360901	5845.5788495922
9	33992	9869.170551571925	5852.571492201
9	34022	9880.602596017447	5855.6914963743
9	34079	9897.829323366338	5864.5631861607
9	34081	9899.01603870274	5861.8753982543
9	34127	9913.705724697427	5871.4101674583
9	34248	9947.010596278881	5902.1293125707
9	34257	9948.797153589061	5902.1615538644
9	34336	9967.187196266289	5920.1199620186
9	34345	9968.825034968229	5918.9149244548
9	34398	9988.067596609985	5935.031542711
10	347	100.995594251944	1
10	352	101.868868579172	0
10	1817	523.928080421248	1
10	1821	524.299593881249	0
10	2936	840.453042548493	1
10	2937	840.638070188872	0
10	3671	1063.083531696111	1
10	3676	1063.792382519456	0
10	4467	1304.427901278697	1
10	4469	1305.220164923092	0
10	4913	1426.943633465138	1
10	4925	1427.666145864705	0
10	5639	1637.808483796265	1
10	5641	1637.947115479972	0
10	6193	1789.852881254544	1
10	6195	1789.946508812263	0
10	6837	1983.148327074173	1
10	6838	1983.63516726866	0
10	7169	2079.103983135373	1
10	7180	2079.626524742957	0
10	8879	2606.225218671959	1
10	8880	2606.231111421268	0
10	9202	2710.445584436567	1
10	9203	2710.527157439836	0
10	10929	3226.868558851303	1
10	10930	3227.21094058775	0
10	10933	3227.250744849334	1
10	10942	3228.123050192801	0
10	14147	4154.398003337594	1
10	14152	4154.982873829115	0
10	15247	4472.221666768048	1
10	15249	4472.518757763183	0
10	15389	4512.973829277983	1
10	15396	4513.527541900762	0
10	17707	5218.767961923557	1
10	17709	5219.384239155622	0
10	17969	5297.998238554043	1
10	17977	5298.478916723146	0
10	19117	5650.073089167087	1
10	19122	5650.66176520512	0
10	20189	5969.327016290248	1
10	20190	5969.338170780219	0
10	20313	6006.370012591964	1
10	20314	6006.432308890234	0
10	21699	6398.563043651302	1
10	21700	6398.804984728313	0
10	22748	6699.548607711651	1
10	22758	6700.53151055879	0
10	24291	7167.576543525993	1
10	24293	7168.499835004153	0
10	24461	7215.323043504175	1
10	24462	7215.529982493196	0
10	24773	7293.503505674756	1
10	24774	7293.551484803859	0
10	24908	7330.075945122235	1
10	24909	7330.101795134261	0
10	25898	7595.658415718098	1
10	25903	7596.581978635886	0
10	27399	8021.806237152309	1
10	27401	8022.511382117909	0
10	27845	8150.781782698981	1
10	27846	8150.797758905151	0
10	27981	8184.328445629919	1
10	27986	8184.85708874488	0
10	28673	8381.897558941791	1
10	28675	8382.398891788709	0
10	29855	8723.666805706562	1
10	29857	8723.883021369499	0
10	29880	8727.204916009981	1
10	29890	8727.941340314218	0
10	30342	8856.064256360816	1
10	30347	8856.574395470431	0
10	30642	8929.972690565854	1
10	30643	8930.051083693732	0
10	30747	8959.738478919331	1
10	30752	8960.431435301474	0
10	30844	8993.749899308532	1
10	30849	8994.402735493964	0
10	33341	9668.624664325169	1
10	33351	9669.389407770495	0
11	352	101.868868579172	0.873274327228
11	1821	524.299593881249	0.371513460001
11	2937	840.638070188872	0.185027640379
11	3676	1063.792382519456	0.708850823345
11	4469	1305.220164923092	0.792263644395
11	4925	1427.666145864705	0.722512399567
11	5641	1637.947115479972	0.138631683707
11	6195	1789.946508812263	0.093627557719
11	6838	1983.63516726866	0.486840194487
11	7180	2079.626524742957	0.522541607584
11	8880	2606.231111421268	0.005892749309
11	9203	2710.527157439836	0.081573003269
11	10930	3227.21094058775	0.342381736447
11	10942	3228.123050192801	0.872305343467
11	14152	4154.982873829115	0.584870491521
11	15249	4472.518757763183	0.297090995135
11	15396	4513.527541900762	0.553712622779
11	17709	5219.384239155622	0.616277232065
11	17977	5298.478916723146	0.480678169103
11	19122	5650.66176520512	0.588676038033
11	20190	5969.338170780219	0.011154489971
11	20314	6006.432308890234	0.06229629827
11	21700	6398.804984728313	0.241941077011
11	22758	6700.53151055879	0.982902847139
11	24293	7168.499835004153	0.92329147816
11	24462	7215.529982493196	0.206938989021
11	24774	7293.551484803859	0.047979129103
11	24909	7330.101795134261	0.025850012026
11	25903	7596.581978635886	0.923562917788
11	27401	8022.511382117909	0.7051449656
11	27846	8150.797758905151	0.01597620617
11	27986	8184.85708874488	0.528643114961
11	28675	8382.398891788709	0.501332846918
11	29857	8723.883021369499	0.216215662937
11	29890	8727.941340314218	0.736424304237
11	30347	8856.574395470431	0.510139109615
11	30643	8930.051083693732	0.078393127878
11	30752	8960.431435301474	0.692956382143
11	30849	8994.402735493964	0.652836185432
11	33351	9669.389407770495	0.764743445326
12	22754	6699.831434489482	1
12	22757	6700.509925237143	0
13	22757	6700.509925237143	0.678490747661

