version 2
run Debugging_quick-0-20211221-22:16:05-7378
attr configname Debugging_quick
attr datetime 20211221-22:16:05
attr experiment Debugging_quick
attr inifile omnetpp.ini
attr iterationvars ""
attr iterationvarsf ""
attr measurement ""
attr network Network
attr processid 7378
attr repetition 0
attr replication #0
attr resultdir results
attr runnumber 0
attr seedset 0
param **.percentage_quick_tills 0.6
param **.quick_checkout_threshold 3
param **.number_of_tills 10
param *.externalWorld.arrival_mean 1
param *.externalWorld.service_distribution 0
param *.externalWorld.service_mean 10
param *.externalWorld.service_std_deviation 1
param **.logging true
param **.quick_tills[*].is_quick true
param **.standard_tills[*].is_quick false

vector 0 Network.supermarket.standard_tills[0] number_of_jobs_stat:vector ETV
attr source number_of_jobs
vector 1 Network.supermarket.standard_tills[1] number_of_jobs_stat:vector ETV
attr source number_of_jobs
vector 2 Network.supermarket.standard_tills[2] number_of_jobs_stat:vector ETV
attr source number_of_jobs
vector 3 Network.supermarket.standard_tills[3] number_of_jobs_stat:vector ETV
attr source number_of_jobs
vector 4 Network.supermarket.quick_tills[0] number_of_jobs_stat:vector ETV
attr source number_of_jobs
vector 5 Network.supermarket.quick_tills[0] response_time_stat:vector ETV
attr source response_time
vector 6 Network.supermarket.standard_tills[0] response_time_stat:vector ETV
attr source response_time
vector 7 Network.supermarket.quick_tills[1] number_of_jobs_stat:vector ETV
attr source number_of_jobs
vector 8 Network.supermarket.quick_tills[1] response_time_stat:vector ETV
attr source response_time
vector 9 Network.supermarket.standard_tills[2] response_time_stat:vector ETV
attr source response_time
vector 10 Network.supermarket.standard_tills[3] response_time_stat:vector ETV
attr source response_time
vector 11 Network.supermarket.standard_tills[1] response_time_stat:vector ETV
attr source response_time
vector 12 Network.supermarket.quick_tills[2] number_of_jobs_stat:vector ETV
attr source number_of_jobs
vector 13 Network.supermarket.quick_tills[2] response_time_stat:vector ETV
attr source response_time
vector 14 Network.supermarket.quick_tills[3] number_of_jobs_stat:vector ETV
attr source number_of_jobs
vector 15 Network.supermarket.quick_tills[3] response_time_stat:vector ETV
attr source response_time
vector 16 Network.supermarket.quick_tills[4] number_of_jobs_stat:vector ETV
attr source number_of_jobs
vector 17 Network.supermarket.quick_tills[4] response_time_stat:vector ETV
attr source response_time
0	3	0.795874504566	1
0	17	6.191932769685	0
0	23	8.471939470509	1
0	27	10.350903524712	2
0	34	12.072066949068	1
0	41	13.402245902161	2
0	63	20.246101750081	3
0	79	25.372931634541	4
0	110	33.392779299942	5
0	130	40.467125730013	6
0	155	52.873434337269	7
0	175	58.68340766017	8
0	227	70.77022329465	9
0	242	72.410623898169	10
0	275	81.563209822434	9
0	282	83.130398389617	10
0	291	85.099943874906	11
0	294	86.614639929178	10
0	307	88.789079252298	11
0	334	96.562702470629	12
0	362	101.572918562751	13
0	387	112.634015341852	14
0	393	114.031600085901	13
0	403	120.100687806241	14
0	419	122.479832607664	15
0	437	125.590397191978	14
0	441	126.350521276278	15
0	447	126.880789388904	16
0	478	135.951021600983	17
0	499	148.41963079405	18
0	507	150.120061994192	17
0	523	155.112230578249	18
0	538	157.431930907436	19
0	559	163.030188267682	20
0	591	172.065521991632	21
0	609	178.109848107027	20
0	612	179.150864130848	21
0	615	179.249514439266	22
0	619	181.870234331173	21
0	627	182.734485070639	22
0	659	191.493261118549	23
0	674	194.693266042648	24
0	686	196.581757195189	25
0	711	201.262716045344	26
0	723	204.370793023313	25
0	730	207.991376641961	26
0	743	211.05115879818	27
0	802	232.786253089522	28
0	815	236.04538224784	27
0	818	236.628198555284	28
0	828	239.465070412569	27
0	843	245.790583999189	28
0	854	249.247529228498	27
0	874	255.072765327737	28
0	898	259.719610062349	29
0	910	263.037366839927	28
0	919	263.73429306705	29
0	931	266.563283015947	30
0	950	269.935959654736	31
0	966	273.767236940809	32
0	978	278.60958555621	31
0	981	279.38883483249	32
0	987	280.34057542576	33
0	992	282.085522071345	32
0	1005	283.572078037495	33
0	1033	293.443541282589	32
0	1051	297.760673960327	33
0	1064	302.223599785624	32
0	1081	311.741181037802	31
0	1084	313.224169257486	32
0	1087	313.262452170371	33
0	1125	323.772857708473	32
0	1128	323.834726187077	33
0	1134	324.508387227359	34
0	1162	332.755897772526	35
0	1174	335.627645095931	34
0	1182	339.002223263603	35
0	1187	340.975059608127	34
0	1191	341.20112981026	35
0	1215	348.87545638805	36
0	1241	351.608173709073	37
0	1262	356.696653296146	36
0	1265	356.749896593303	37
0	1280	364.479090487728	36
0	1285	365.33055929265	37
0	1294	367.073704665114	38
0	1305	369.220562028502	37
0	1309	369.650993135223	38
0	1371	392.506265903736	39
0	1387	393.685033280398	40
0	1389	395.463432529832	39
0	1406	400.038358637105	40
0	1442	407.06518433478	41
0	1445	408.409630804806	40
0	1451	410.385712532966	41
0	1479	418.571172626172	42
0	1495	422.816420659582	41
0	1498	423.456810352183	42
0	1519	433.957616317527	43
0	1563	444.13150497718	42
0	1566	445.289660621154	43
0	1575	447.698651012617	44
0	1611	456.502344156058	45
0	1627	463.674742538644	46
0	1667	474.84541971645	47
0	1668	477.609981019763	46
0	1671	478.002515257866	47
0	1686	480.872805070225	48
0	1703	484.411372562828	49
0	1704	484.503705546342	48
0	1707	485.034201872593	49
0	1738	492.956769602689	50
0	1739	493.140441862421	49
0	1742	493.685293445423	50
0	1790	501.387619707999	51
0	1814	507.534021116687	50
0	1817	508.211497683009	51
0	1828	511.120225189529	50
0	1833	513.40446343212	51
0	1850	517.239104595135	52
0	1859	518.608052624771	51
0	1866	521.667159667576	52
0	1875	522.626361903167	53
0	1893	524.9689333262	52
0	1896	527.408346053418	53
0	1899	527.417629077796	54
0	1909	531.268642044779	53
0	1921	537.510666621003	52
0	1924	537.556428601066	53
0	1927	538.439309146023	54
0	1945	544.608464762781	53
0	1948	544.751487096016	54
0	1962	549.73739706979	55
0	1968	551.924473650545	54
0	1977	554.113590270642	55
0	1983	559.054101405067	54
0	1986	559.206679720498	55
0	2005	567.102086342279	54
0	2008	567.245123804571	55
0	2012	570.375795665747	54
0	2015	570.551765730702	55
0	2023	571.587953572339	56
0	2039	578.001837539251	57
0	2043	578.817046671385	56
0	2062	585.760507855795	57
0	2074	595.583244399941	56
0	2080	596.709733454697	57
0	2095	598.507766079812	58
0	2119	602.545943901257	59
0	2148	612.039347112193	58
0	2152	614.64922893617	59
0	2167	622.235867142089	60
0	2187	625.69816102306	61
0	2211	631.479524935007	62
0	2216	631.956720356528	61
0	2223	635.882439945361	62
0	2239	638.505849847923	63
0	2270	645.465174015298	64
0	2272	645.705187302575	63
0	2275	646.031068556933	64
0	2287	650.197859714786	63
0	2302	654.301215300864	64
0	2326	656.755249612715	65
0	2343	659.309988907223	66
0	2355	662.680206532266	65
0	2363	664.891075766762	66
0	2387	670.489891326992	67
0	2427	679.673341767389	68
0	2443	681.427947233989	69
0	2467	689.198971927038	70
0	2487	693.497883266049	71
0	2498	696.876772519578	70
0	2502	697.409211474021	71
0	2509	701.352382200634	70
0	2515	702.202388192419	71
0	2523	703.884541777688	72
0	2535	706.827116589383	73
0	2551	710.059795802066	72
0	2557	710.830319444005	73
0	2563	711.930332693998	74
0	2583	716.427076053673	75
0	2607	721.473143433767	76
0	2639	732.328055016095	77
0	2667	740.767226696754	78
0	2686	745.13204013417	77
0	2690	746.264767121486	78
0	2703	748.409715668506	79
0	2715	753.185834827662	80
0	2719	754.806714990963	79
0	2727	759.102888364974	80
0	2743	764.638469846689	81
0	2752	769.050781926958	80
0	2761	771.769632132697	81
0	2780	779.581070686618	80
0	2787	780.700407229784	81
0	2791	781.208626683837	82
0	2807	787.994096247113	81
0	2810	788.160561699551	82
0	2822	792.776731545143	81
0	2828	793.041047032952	82
0	2850	798.196088236223	83
0	2863	799.673577847947	84
0	2873	803.840139108094	83
0	2879	805.470796149578	84
0	2907	813.403369447926	85
0	2935	817.298993378705	86
0	2942	818.289616910374	85
0	2945	818.773287420108	86
0	2959	821.239698999619	87
0	2975	822.972735158065	88
0	2991	825.74706630281	89
0	2996	828.224507653236	88
0	2999	829.867344786847	89
0	3034	842.198285547474	88
0	3037	842.783015702041	89
0	3042	845.253987018618	88
0	3045	845.446416707922	89
0	3063	852.216464435775	90
0	3067	852.650854930982	89
0	3070	854.120465249606	90
0	3079	856.152415192794	91
0	3091	859.144798984291	92
0	3119	868.036444652123	93
0	3157	879.529223768002	92
0	3164	881.299292454206	93
0	3167	883.889118599703	94
0	3187	887.074422594756	95
0	3232	909.52183245993	94
0	3239	911.423439352193	95
0	3257	917.655861937294	94
0	3260	917.989970602027	95
0	3263	918.255787151049	96
0	3275	920.416204785952	97
0	3282	924.311000557557	96
0	3285	924.334630347647	97
0	3316	930.325829795092	96
0	3320	931.114999194908	97
0	3323	932.254794601573	98
0	3339	935.599867773401	99
0	3350	939.721602203746	98
0	3353	940.313020044298	99
0	3359	941.018154866101	100
0	3372	945.875046415211	99
0	3378	946.949955128383	100
0	3399	954.748926385899	101
0	3419	961.109250072428	102
0	3421	963.426360005645	101
0	3435	969.360932868929	102
0	3455	972.600056127395	103
0	3475	975.979559833674	104
0	3482	980.006902184904	103
0	3488	982.020119732472	104
0	3490	984.385514909253	103
0	3493	985.45574312495	104
0	3511	990.639821946349	105
0	3518	992.289737762062	104
0	3522	994.106938070793	105
0	3534	996.540629498376	104
0	3537	996.542223603316	105
0	3554	1003.279047292343	104
0	3557	1005.014298657635	105
0	3567	1005.839381235828	106
0	3610	1016.931646525967	107
0	3635	1027.860349949834	108
0	3659	1032.601769363937	109
0	3663	1033.819257488387	108
0	3669	1035.152960785626	109
0	3692	1042.82051360728	108
0	3695	1044.391550077855	109
0	3730	1052.488343192444	110
0	3751	1057.394569628338	111
0	3769	1059.699918111247	110
0	3784	1063.177287083721	111
0	3799	1064.588056356864	112
0	3810	1068.324034845304	111
0	3813	1068.901566961239	112
0	3819	1069.23732536121	113
0	3826	1073.422550684608	112
0	3832	1074.239157770174	113
0	3851	1077.509605390955	114
0	3852	1078.147904066688	113
0	3859	1079.912106633064	114
0	3874	1084.679892554664	115
0	3884	1087.429414465851	114
0	3890	1090.670907198983	115
0	3895	1092.831663474942	114
0	3918	1101.109681996531	115
0	3927	1104.658395604487	116
0	3928	1104.86752660749	115
0	3937	1106.140165575184	116
0	3969	1118.731340819675	115
0	3980	1120.55834083872	116
0	3991	1123.188300582854	117
0	4009	1130.706519276228	116
0	4013	1131.951239126188	117
0	4027	1133.975163834486	118
0	4043	1142.428010653862	119
0	4075	1152.969451190691	120
0	4077	1153.785365093465	119
0	4095	1159.14751455732	120
0	4105	1160.084785037613	119
0	4108	1160.325529796777	120
0	4123	1164.832175999034	121
0	4124	1166.079057408121	120
0	4130	1167.375322312133	121
0	4139	1171.212003860411	120
0	4142	1171.328456170276	121
0	4158	1175.620483294967	122
0	4186	1180.551854237706	123
0	4187	1180.938481816393	122
0	4191	1182.970905631865	123
0	4218	1187.470334545458	124
0	4231	1191.97432147747	125
0	4303	1216.397084427796	126
0	4304	1217.359234922945	125
0	4307	1217.487330014257	126
0	4342	1224.731002129456	127
0	4357	1228.685090579195	126
0	4361	1229.275820316268	127
0	4367	1230.301273578764	128
0	4369	1232.891074581424	127
0	4375	1233.545167147565	128
0	4415	1243.07033207678	129
0	4436	1248.86808552186	128
0	4442	1255.058689077451	129
0	4477	1270.070578130979	128
0	4481	1272.17116006626	129
0	4489	1277.360269825783	128
0	4493	1278.351819069532	129
0	4499	1279.918584909457	130
0	4511	1281.928844087028	131
0	4540	1285.141212117978	130
0	4543	1285.655372129065	131
0	4547	1287.703955285662	132
0	4563	1293.265425419291	133
0	4564	1293.638953507404	132
0	4567	1293.658642706282	133
0	4586	1300.958075362376	132
0	4605	1308.081016256227	133
0	4623	1316.912174246817	134
0	4630	1317.659062374682	133
0	4641	1320.12246947452	134
0	4663	1325.668869652319	135
0	4695	1335.396659833746	136
0	4723	1340.706467833819	137
0	4758	1352.490805073292	138
0	4774	1354.460349238427	139
0	4789	1358.297477827269	138
0	4792	1359.322263654921	139
0	4795	1359.83253505268	140
0	4819	1363.851974814995	141
0	4839	1371.231134124674	142
0	4856	1375.003097489672	141
0	4867	1377.091516559888	142
0	4886	1381.594636466024	143
0	4897	1383.431047223988	142
0	4903	1384.296443750648	143
0	4918	1387.405618141266	144
0	4931	1389.877527096144	143
0	4934	1392.736282252846	144
0	4951	1398.854961696659	143
0	4958	1400.459793059895	144
0	4972	1406.626872689028	143
0	4976	1407.689994568272	144
0	4991	1413.550031361475	143
0	4994	1415.315795607437	144
0	5005	1417.603947050726	143
0	5011	1418.601616191747	144
0	5032	1424.921987017504	145
0	5054	1426.8042683064	146
0	5070	1427.407391446829	147
0	5083	1428.516613389374	148
0	5110	1436.687231254331	147
0	5114	1438.040080169679	148
0	5118	1440.532447749749	147
0	5121	1440.925359333596	148
0	5127	1441.495602434629	149
0	5150	1445.630688708285	150
0	5156	1447.016881968433	149
0	5167	1449.162878924689	150
0	5195	1455.769351937878	151
0	5199	1458.424986353991	150
0	5202	1459.924882057331	151
0	5211	1462.414078058175	152
0	5232	1472.349230259465	151
0	5235	1472.63914065083	152
0	5264	1477.340511125407	151
0	5267	1477.511714447124	152
0	5274	1478.880389668729	153
0	5287	1480.772580135268	154
0	5306	1483.797898505529	155
0	5310	1485.071956195802	154
0	5326	1490.526264035727	155
0	5342	1492.808441175287	156
0	5349	1494.883224893391	155
0	5363	1502.077449979066	156
0	5373	1507.733779233195	155
0	5376	1508.199967791206	156
0	5393	1512.947663054433	155
0	5396	1514.372376130252	156
0	5399	1514.909559867338	157
0	5412	1521.751090129364	156
0	5416	1522.094184759942	157
0	5422	1522.592725262817	158
0	5443	1527.757325355476	159
0	5473	1535.617232843887	160
0	5519	1556.672548245538	159
0	5534	1560.349611039065	160
0	5535	1560.437759524722	159
0	5542	1561.367612751608	160
0	5569	1569.854985774811	161
0	5592	1575.530167451216	160
0	5595	1575.689852732842	161
0	5598	1575.8395979411	162
0	5619	1582.718134860542	161
0	5623	1584.079405069484	162
0	5631	1588.625837072859	161
0	5634	1589.191278342826	162
0	5647	1591.531446950705	163
0	5662	1592.836132078259	164
0	5675	1596.42508205655	163
0	5678	1596.626383913735	164
0	5699	1605.935490608174	165
0	5704	1607.189675875294	164
0	5710	1609.578847372496	165
0	5732	1614.823963267807	164
0	5735	1615.35764726867	165
0	5738	1615.382711856223	166
0	5751	1618.594875948155	165
0	5757	1619.599441086048	166
0	5766	1622.47598824054	167
0	5791	1631.173170183135	168
0	5798	1634.95453479064	167
0	5801	1635.429807113926	168
0	5822	1640.494219035084	169
0	5829	1641.640531749757	168
0	5833	1642.998253833914	169
0	5839	1643.383013746537	170
0	5854	1645.242504522893	171
0	5863	1647.472779619144	170
0	5866	1647.584066527477	171
0	5883	1651.586467013294	172
0	5905	1652.997830632729	173
0	5909	1654.142559864764	172
0	5914	1656.120146346523	173
0	5921	1657.183019926914	172
0	5924	1657.376992082433	173
0	5950	1663.902211641073	174
0	5986	1673.815030581659	175
0	6002	1677.199633373564	176
0	6007	1678.373421500817	175
0	6010	1678.953130927969	176
0	6026	1681.582822196591	177
0	6039	1685.476685315966	176
0	6043	1686.242611674494	177
0	6053	1689.084537982962	176
0	6057	1690.701095891424	177
0	6063	1694.29067638844	178
0	6082	1698.08458999383	177
0	6085	1698.627971170194	178
0	6095	1704.877324665663	179
0	6107	1708.447620526857	180
0	6117	1711.941867674882	179
0	6131	1716.743046892865	180
0	6142	1719.72786849435	179
0	6152	1720.463364505988	180
0	6158	1721.879550914512	181
0	6175	1728.816579865318	182
0	6191	1732.092104049032	183
0	6197	1736.022279793775	182
0	6203	1736.43513122263	183
0	6223	1741.009750258433	184
0	6286	1754.782130616043	185
0	6318	1765.501028353628	184
0	6321	1765.885309890614	185
0	6339	1770.885906919208	186
0	6340	1771.098015799318	185
0	6343	1771.308310368611	186
0	6362	1780.797856568406	187
0	6370	1788.026618923751	186
0	6394	1791.507570783428	187
0	6399	1792.934035378155	186
0	6402	1793.033539702264	187
0	6415	1794.971611251095	188
0	6419	1797.126442694166	187
0	6422	1797.590239623438	188
0	6439	1803.60329103415	189
0	6465	1810.79251644271	190
0	6482	1814.151210818789	189
0	6487	1816.522861600457	190
0	6518	1824.036646027285	191
0	6521	1824.831533212389	190
0	6539	1832.400154493674	191
0	6550	1833.601266819315	190
0	6554	1835.07272285199	191
0	6571	1838.90371052927	192
0	6575	1842.123187837326	191
0	6585	1846.079663910786	192
0	6619	1855.838678486312	193
0	6623	1856.182506198077	192
0	6627	1856.757464950118	193
0	6638	1861.205303279464	192
0	6642	1862.072656824064	193
0	6651	1865.715296002788	194
0	6675	1872.47918019236	195
0	6695	1876.228484919633	196
0	6699	1879.295173775635	195
0	6702	1879.356677839019	196
0	6722	1888.098450655325	195
0	6725	1888.219530576763	196
0	6754	1893.699011620848	197
0	6778	1901.884298339244	198
0	6784	1903.217035025675	197
0	6787	1903.650659080311	198
0	6815	1910.983423576397	199
0	6816	1912.602733021617	198
0	6819	1914.626133264416	199
0	6829	1920.338223714808	198
0	6838	1922.248351008965	199
0	6863	1926.170032813781	200
0	6883	1933.555282518574	201
0	6925	1943.919416738181	200
0	6928	1944.454207796496	201
0	6939	1946.513706442854	202
0	6951	1951.35618489004	203
0	6963	1955.826869949192	202
0	6969	1959.592878786482	203
0	6983	1969.504403546765	202
0	6992	1971.68358735088	203
0	6999	1973.078565726056	204
0	7018	1978.084848016108	205
0	7030	1982.664642078868	204
0	7042	1984.435469179984	205
0	7055	1987.78747108788	204
0	7063	1991.15202964376	205
0	7087	1997.947343620837	206
0	7088	1997.977878059566	205
0	7103	2000.504902952355	206
0	7113	2001.047172301605	205
0	7116	2001.25105349055	206
0	7119	2003.14364481962	207
0	7146	2007.630220772737	208
0	7158	2011.480571375619	207
0	7161	2012.21713358692	208
0	7171	2016.528672136729	209
0	7198	2024.909053753338	210
0	7217	2028.964078994538	211
0	7239	2033.828963484214	212
0	7258	2039.279495484022	213
0	7301	2051.889051688495	212
0	7304	2052.373826312317	213
0	7307	2053.04738710278	214
0	7326	2058.760088782543	215
0	7328	2059.517312018114	214
0	7337	2063.292898508294	213
0	7340	2063.377179126679	214
0	7351	2069.049060693797	215
0	7363	2072.282462346913	216
0	7407	2087.094809898248	217
0	7411	2088.678234002784	216
0	7414	2088.96384123298	217
0	7427	2092.568998569721	218
0	7443	2096.476885018915	219
0	7470	2101.106328491489	220
0	7487	2102.5830449502	221
0	7502	2107.160665646223	220
0	7505	2107.304779066413	221
0	7511	2111.186584761993	222
0	7531	2114.679089299201	223
0	7542	2117.660418080126	222
0	7545	2118.374889135546	223
0	7551	2119.242069565314	224
0	7558	2121.310344482864	223
0	7561	2122.489777159596	224
0	7582	2127.012266230084	225
0	7590	2128.550876587248	224
0	7597	2130.192175631312	225
0	7606	2130.956338591781	226
0	7619	2134.342993164806	227
0	7626	2135.442095662669	226
0	7629	2136.810178640982	227
0	7643	2144.213981466197	228
0	7669	2150.2202589524	229
0	7694	2154.930195569033	230
0	7700	2157.951192200886	229
0	7703	2160.050190654917	230
0	7722	2164.666143821952	231
0	7727	2166.549255052227	230
0	7730	2166.686700711176	231
0	7739	2167.807782179863	232
0	7766	2184.146459839188	233
0	7767	2184.80269791286	232
0	7775	2187.941422526848	233
0	7777	2190.362231726084	232
0	7786	2191.419947291452	233
0	7799	2193.703043297081	234
0	7800	2195.003143386338	233
0	7810	2198.785714875428	234
0	7823	2201.542307716482	235
0	7827	2203.544386318642	234
0	7830	2203.711646450475	235
0	7855	2213.357446961551	236
0	7871	2218.754959566075	237
0	7893	2228.827520528123	236
0	7901	2232.473263848603	237
0	7911	2236.752683440989	238
0	7916	2238.169373605931	237
0	7919	2238.244137911801	238
0	7931	2240.324389782085	239
0	7945	2243.956929149321	238
0	7953	2244.460174278805	239
0	7967	2247.63104485435	240
0	7971	2248.24919497219	239
0	7978	2251.471518661109	238
0	7987	2252.689509011211	239
0	8003	2257.34896262377	240
0	8019	2266.5510960746	239
0	8026	2268.913510075194	240
0	8039	2270.329496572416	241
0	8042	2272.577660559205	240
0	8075	2285.860525111161	241
0	8076	2287.022148576616	240
0	8079	2287.293645693074	241
0	8091	2289.239814836794	242
0	8101	2293.032080127893	241
0	8106	2295.189002183499	242
0	8123	2300.641540247145	243
0	8143	2305.295790620729	244
0	8171	2312.480631185955	245
0	8183	2313.690712801453	246
0	8218	2319.812588799248	247
0	8235	2322.740045500678	248
0	8251	2330.061876649701	247
0	8254	2330.87414107462	248
0	8271	2341.148873483483	249
0	8306	2347.763050432285	250
0	8326	2350.68194596182	251
0	8339	2355.446268760208	252
0	8365	2362.046551517854	253
0	8382	2366.102698417729	252
0	8394	2372.44292456554	253
0	8415	2380.650689548032	254
0	8416	2380.690268344199	253
0	8423	2382.131894680489	254
0	8435	2387.622550876721	255
0	8444	2390.703739978215	254
0	8451	2393.208984596467	255
0	8452	2394.686939306181	254
0	8455	2394.720428354314	255
0	8471	2400.409140464202	256
0	8499	2411.497617784858	257
0	8526	2419.047069094726	258
0	8553	2425.852860932624	259
0	8582	2434.015235817099	258
0	8585	2434.1169276859	259
0	8602	2439.395099980191	260
0	8623	2445.55983539141	261
0	8631	2447.111947640513	260
0	8634	2448.320384749412	261
0	8643	2448.881855744527	262
0	8651	2453.225867053983	261
0	8658	2454.547091486688	262
0	8670	2456.980290014225	261
0	8674	2457.223195263668	262
0	8683	2458.170197841954	263
0	8695	2464.2684018014	264
0	8751	2490.861337635066	265
0	8775	2496.737476247891	266
0	8789	2498.574533818269	265
0	8792	2498.893212420176	266
0	8802	2499.609563221963	267
0	8830	2504.488040844737	268
0	8831	2504.79061761716	267
0	8837	2505.388948949175	268
0	8861	2508.537572228162	267
0	8864	2509.065099076805	268
0	8887	2515.798324035535	269
0	8897	2520.240178782098	268
0	8904	2522.534450908205	269
0	8910	2525.295228652158	268
0	8914	2526.381162360018	269
0	8926	2528.705196636541	270
0	8947	2541.25473862806	271
0	8980	2552.215595800607	270
0	8983	2552.270761178257	271
0	9005	2557.153700449798	272
0	9015	2563.37734724178	271
0	9018	2563.408633197377	272
0	9041	2579.864283234954	271
0	9055	2584.100584597061	272
0	9075	2590.86140555611	273
0	9098	2597.038686408408	274
0	9107	2599.476802214254	273
0	9122	2602.868895668211	274
0	9158	2609.613475174247	275
0	9163	2609.950886717502	274
0	9166	2611.908649779599	275
0	9179	2613.328161076818	276
0	9191	2618.590231807993	275
0	9206	2621.793934395702	274
0	9209	2621.896361193865	275
0	9213	2622.298734405146	276
0	9239	2629.489418947535	277
0	9255	2634.974941503649	278
0	9263	2638.172890710261	277
0	9266	2639.246818948797	278
0	9275	2646.686404925001	279
0	9307	2657.540399010765	278
0	9310	2657.608901126216	279
0	9335	2666.440877034658	280
0	9351	2671.202564591033	281
0	9352	2672.403724639609	280
0	9355	2672.66857568448	281
0	9368	2675.440938205541	280
0	9372	2675.839093100832	281
0	9379	2677.188598271809	282
0	9403	2683.185278953279	283
0	9422	2693.994737680874	282
0	9426	2697.029408951235	283
0	9435	2699.191323847842	284
0	9447	2703.459457742261	285
0	9486	2715.65935284717	286
0	9511	2721.694936625642	287
0	9531	2728.400289010302	288
0	9545	2731.49419717636	287
0	9549	2732.135360910661	288
0	9563	2736.043775150493	289
0	9582	2739.263035173484	290
0	9592	2742.720092528266	289
0	9595	2742.87688337014	290
0	9619	2748.639438089603	291
0	9643	2753.510041389797	290
0	9646	2753.757621077693	291
0	9679	2760.554620192647	292
0	9698	2764.151023821093	291
0	9701	2764.583352213576	292
0	9711	2767.553126917088	293
0	9712	2767.782525099536	292
0	9715	2768.78406796446	293
0	9751	2781.116131319763	294
0	9756	2785.791781384495	293
0	9759	2786.249867783938	294
0	9773	2791.506493513933	293
0	9778	2792.762454825846	294
0	9791	2796.850269583732	295
0	9820	2806.327255056796	294
0	9840	2811.505789406142	293
0	9843	2811.888524081926	294
0	9859	2815.602904121783	295
0	9871	2817.06995220244	296
0	9895	2822.942196408639	297
0	9905	2825.542471384756	296
0	9919	2827.938338378841	297
0	9939	2830.515664501107	298
0	9963	2842.580072953764	299
0	9975	2846.864862470888	298
0	9978	2846.980250450666	299
0	9995	2854.986844930398	300
0	10007	2857.785228140805	301
0	10029	2863.628962970498	300
0	10034	2867.272076320796	301
0	10035	2867.289733348821	300
0	10039	2869.852948859576	301
0	10043	2872.833353733335	300
0	10046	2872.99081053319	301
0	10055	2873.297977112592	302
0	10087	2882.180839518881	303
0	10110	2886.243083208403	304
0	10140	2898.793009984139	303
0	10147	2901.990809977108	304
0	10183	2908.623016646839	305
0	10201	2916.827582383299	304
0	10211	2919.309345965401	305
0	10230	2925.064573101268	306
0	10243	2927.999282648752	307
0	10245	2930.655482150146	306
0	10255	2932.199583696329	307
0	10267	2936.998145020644	308
0	10299	2947.6361855741	309
0	10315	2951.498939003155	310
0	10325	2952.95476442049	309
0	10328	2953.020583487405	310
0	10342	2958.200143728505	311
0	10350	2959.769248496776	310
0	10361	2963.417504219636	311
0	10394	2971.075500667033	312
0	10399	2972.517419429615	311
0	10402	2973.895124111659	312
0	10425	2981.842681941922	311
0	10437	2986.390510905426	312
0	10455	2991.775542862205	313
0	10495	3005.804094652126	314
0	10531	3015.399297149638	315
0	10547	3017.13463748216	316
0	10563	3020.076346160529	317
0	10589	3024.178466148178	318
0	10590	3024.323811818354	317
0	10599	3028.580745270796	318
0	10627	3038.046974773869	319
0	10629	3039.793904332193	318
0	10639	3042.598687195227	319
0	10650	3047.80316996533	318
0	10653	3049.006433131027	319
0	10663	3053.128008240139	320
0	10691	3063.247034532103	321
0	10700	3066.506205930149	320
0	10706	3067.15920025542	321
0	10715	3068.7819917315	322
0	10770	3084.699820094216	323
0	10773	3086.308798763608	322
0	10798	3096.180822675336	323
0	10841	3104.922804145032	324
0	10863	3114.094411759968	325
0	10883	3120.349296232517	326
0	10901	3126.513563680426	325
0	10905	3128.543648776978	326
0	10917	3131.675638968669	325
0	10923	3133.042769797109	326
0	10959	3147.718276149102	327
0	11011	3164.322686105665	328
0	11042	3169.496661615231	329
0	11059	3174.590638682561	330
0	11061	3175.357799082893	329
0	11067	3175.548377403976	330
0	11075	3178.386408151224	329
0	11078	3178.976446006332	330
0	11091	3185.869077469877	329
0	11094	3188.323601403214	330
0	11118	3194.033629374092	331
0	11130	3200.175436198896	330
0	11134	3201.216447908367	331
0	11147	3205.318619469418	332
0	11178	3212.925602417647	333
0	11183	3214.063383834972	332
0	11186	3214.374383733185	333
0	11202	3216.446866621858	334
0	11207	3219.20278730211	333
0	11210	3219.85201148145	334
0	11219	3221.962964293003	335
0	11258	3229.244651215414	336
0	11274	3232.897646012619	337
0	11276	3234.114743713282	336
0	11279	3234.289145819852	337
0	11300	3241.600805389481	336
0	11303	3241.607828891477	337
0	11317	3246.008420931957	336
0	11322	3249.559608980284	337
0	11333	3253.84278227485	336
0	11342	3255.547853253991	337
0	11345	3255.821103594583	338
0	11356	3257.269720229668	337
0	11363	3263.382815163394	336
0	11366	3263.670309663509	337
0	11379	3266.802457812513	338
0	11395	3269.784175532358	339
0	11406	3272.392994249557	338
0	11414	3273.310971214856	339
0	11429	3276.707813782808	338
0	11432	3277.984514743853	339
0	11439	3279.872993879353	340
0	11443	3281.8995491666	339
0	11450	3282.864037016163	340
0	11459	3283.956994733036	341
0	11471	3294.153813953887	340
0	11495	3299.75023875159	341
0	11507	3302.150881228388	340
0	11518	3305.505270805936	341
0	11531	3308.681063877019	342
0	11546	3311.66540118649	343
0	11551	3312.828686101756	342
0	11563	3317.002924570885	343
0	11565	3318.502319772835	342
0	11571	3318.620040003007	343
0	11583	3319.122695190658	344
0	11603	3323.798333891559	345
0	11607	3325.528248443844	344
0	11610	3325.711494234328	345
0	11619	3328.684152590739	346
0	11627	3332.42090816604	345
0	11636	3339.003485917706	344
0	11639	3339.697667080829	345
0	11642	3340.478591062519	346
0	11655	3344.278748869451	347
0	11674	3350.696725349319	348
0	11686	3351.967934841912	349
0	11715	3359.288431301628	350
0	11722	3364.018611944816	349
0	11725	3364.129965229715	350
0	11747	3369.723295657549	351
0	11759	3375.300156671509	352
0	11760	3376.082570620863	351
0	11771	3380.968860978368	352
0	11779	3383.853532725947	351
0	11782	3384.375196062081	352
0	11803	3390.584655725953	353
0	11813	3393.644152978882	352
0	11816	3394.043216760987	353
0	11823	3395.178920471579	354
0	11847	3403.709061386732	355
0	11883	3418.40044289199	356
0	11899	3421.073479989195	357
0	11914	3425.472184983652	358
0	11943	3435.989976967802	359
0	11954	3439.056776704103	358
0	11959	3442.852038759543	359
0	11962	3444.839250003584	358
0	11982	3451.22559492834	359
0	11995	3452.423500400041	360
0	12028	3459.037124437943	361
0	12053	3462.140063385898	360
0	12060	3465.670566187059	361
0	12070	3467.896507082466	362
0	12076	3470.994399136053	361
0	12079	3472.538134309654	362
0	12110	3479.340884899904	363
0	12112	3480.528946066686	362
0	12115	3480.53233379721	363
0	12127	3481.899058489196	364
0	12171	3493.38906551551	365
0	12187	3496.560799301413	366
0	12203	3500.059697181999	367
0	12211	3506.818885771424	366
0	12214	3507.50583499148	367
0	12239	3511.970895012673	368
0	12259	3515.174027464203	369
0	12278	3520.447056953815	368
0	12281	3521.286031429189	369
0	12290	3523.973954929162	370
0	12315	3532.255982380572	371
0	12342	3538.391407041855	372
0	12343	3539.875380532634	371
0	12347	3540.280954341089	372
0	12369	3543.292785124545	373
0	12383	3544.758293462554	374
0	12390	3545.298165432522	373
0	12393	3545.974927571567	374
0	12399	3546.696153374458	375
0	12411	3551.209306399766	376
0	12416	3552.345142155276	375
0	12426	3556.996512853044	376
0	12439	3559.115395661588	377
0	12443	3560.596668787806	376
0	12447	3560.864914122486	377
0	12467	3567.458569964309	378
0	12479	3569.056183676303	379
0	12491	3570.55761341211	380
0	12499	3572.496191643876	379
0	12505	3573.698959024178	380
0	12515	3574.317234919963	381
0	12565	3587.540147709037	380
0	12568	3589.430821090683	381
0	12571	3589.64959526052	382
0	12588	3591.423572592327	381
0	12596	3595.919713146046	382
0	12622	3604.310524127856	383
0	12647	3610.298392138058	382
0	12654	3611.60641402589	383
0	12669	3614.099083311625	384
0	12678	3615.522685631502	383
0	12681	3615.72721527102	384
0	12691	3616.994597539692	385
0	12731	3635.577880101927	386
0	12743	3640.047396506483	387
0	12759	3645.287323525103	388
0	12786	3652.93106362469	389
0	12792	3655.973055548684	388
0	12802	3658.324121164368	389
0	12807	3663.414769488935	388
0	12814	3665.640650948711	389
0	12815	3666.455844087272	388
0	12818	3667.021847532788	389
0	12831	3671.702795051035	390
0	12854	3678.01386093238	391
0	12859	3682.199239246402	390
0	12862	3682.408500830898	391
0	12874	3685.02602587594	392
0	12883	3686.623297638452	391
0	12890	3687.741307080712	392
0	12904	3689.75193075295	391
0	12907	3691.805437646781	392
0	12921	3698.714091427257	391
0	12924	3699.229198056804	392
0	12927	3701.834486869766	393
0	12953	3718.048917544269	392
0	12960	3720.719468413966	393
0	12961	3722.035517485595	392
0	12965	3724.396538771216	393
0	12974	3725.968870527264	394
0	12980	3730.838685212921	393
0	12983	3731.472076938127	394
0	13017	3738.925513779082	393
0	13020	3739.99459318938	394
0	13023	3740.054835752337	395
0	13051	3748.311673962854	394
0	13054	3748.47793514935	395
0	13077	3752.741881121215	396
0	13079	3753.255840215099	395
0	13090	3758.921907614428	394
0	13093	3759.399412606821	395
0	13104	3763.123048068054	394
0	13108	3763.41654885397	395
0	13121	3765.375347694441	396
0	13151	3777.440752664781	397
0	13164	3778.25270904898	396
0	13168	3779.221013313294	397
0	13175	3781.204769796015	398
0	13194	3784.866463471234	399
0	13219	3790.456107781971	400
0	13226	3793.022390150791	399
0	13235	3796.994499833304	400
0	13266	3805.637378814036	399
0	13270	3806.663995651245	400
0	13283	3811.437812884938	401
0	13313	3813.888372377204	402
0	13337	3819.468273995932	401
0	13350	3824.347682888923	402
0	13352	3824.996025898412	401
0	13361	3829.646937006197	400
0	13364	3831.586318981769	401
0	13371	3833.146301905082	402
0	13394	3838.497636084603	403
0	13404	3839.810191854327	402
0	13414	3842.804471280188	403
0	13423	3845.436177201803	404
0	13432	3849.318720984973	403
0	13435	3850.618349971765	404
0	13455	3856.052153966293	405
0	13479	3862.739302669844	406
0	13507	3867.742739283138	407
0	13512	3870.139789778721	406
0	13542	3876.158029156916	407
0	13571	3886.389278707963	408
0	13595	3893.411551864955	409
0	13606	3898.707313163737	408
0	13610	3899.028557179439	409
0	13619	3902.214735550245	410
0	13620	3902.850817878582	409
0	13623	3903.174547795581	410
0	13634	3907.043020245666	409
0	13642	3908.856432634584	410
0	13663	3913.347176059343	411
0	13695	3923.100439081004	412
0	13707	3923.964936645271	413
0	13715	3925.655848406805	412
0	13722	3927.77425253362	413
0	13734	3929.412139767992	414
0	13738	3931.218248656129	413
0	13743	3933.523765717428	414
0	13770	3940.558098844429	413
0	13775	3944.072097943321	414
0	13776	3944.08133005595	413
0	13783	3945.860355105057	414
0	13798	3948.290862569114	415
0	13819	3953.40009683985	416
0	13835	3957.106062594405	417
0	13850	3963.820740746181	416
0	13857	3964.942798685772	417
0	13870	3969.735878539462	418
0	13891	3972.945853254577	419
0	13916	3976.594231752567	418
0	13920	3979.177036945468	419
0	13935	3984.591878014864	420
0	13951	3989.460577406278	421
0	13983	4001.596782388144	422
0	14007	4009.35003596747	423
0	14031	4014.797872784695	424
0	14039	4017.22038141151	423
0	14042	4018.167055358074	424
0	14053	4023.588135262788	423
0	14056	4024.547307746153	424
0	14063	4026.329759392197	425
0	14075	4031.331390227775	424
0	14086	4033.266137205647	425
0	14099	4036.918208198798	424
0	14105	4037.947552411796	425
0	14115	4040.557019225609	424
0	14118	4042.29555723909	425
0	14134	4046.829588570181	426
0	14139	4049.216811249332	425
0	14146	4051.687660285503	426
0	14155	4053.389833413542	427
0	14214	4069.38485724407	428
0	14231	4074.625496570606	429
0	14251	4081.121390507209	430
0	14274	4085.185867493192	431
0	14299	4092.708276381141	432
0	14314	4096.714739260805	431
0	14317	4096.952419636694	432
0	14334	4100.275997031764	433
0	14354	4103.188855671077	434
0	14367	4104.452382427773	435
0	14388	4107.637346784978	434
0	14402	4112.584167300802	435
0	14427	4121.381195517414	434
0	14430	4121.388320210014	435
0	14439	4122.177882026815	436
0	14459	4127.04207535545	437
0	14479	4130.638930965869	438
0	14496	4135.860044582085	437
0	14501	4139.182365849489	438
0	14507	4140.073199482138	439
0	14517	4142.552416488525	438
0	14520	4143.320277457129	439
0	14523	4143.968641498888	440
0	14548	4152.887181707067	439
0	14558	4154.902490028488	440
0	14574	4157.707416890525	439
0	14584	4160.923812830589	440
0	14598	4164.052219951237	439
0	14601	4164.311837652899	440
0	14608	4168.583733364631	439
0	14613	4169.343892237697	440
0	14626	4172.139336973408	441
0	14643	4177.819016013633	442
0	14656	4183.474100023656	441
0	14667	4188.213305961368	442
0	14685	4194.687953258162	441
0	14688	4194.710621490863	442
0	14695	4196.724337098109	443
0	14763	4210.856495659126	444
0	14786	4216.428674292192	445
0	14799	4221.16572175834	446
0	14814	4223.425310228742	447
0	14839	4226.890239825812	448
0	14849	4230.343966046189	447
0	14852	4230.496427225272	448
0	14858	4230.795218871784	449
0	14866	4235.065837578425	448
0	14874	4236.288293902183	449
0	14891	4241.700987938975	450
0	14919	4251.208061966461	451
0	14923	4251.944600993681	450
0	14926	4252.599316640037	451
0	14947	4257.348546755003	452
0	14970	4260.737123566108	453
0	14972	4261.913081744013	452
0	14975	4262.676348230856	453
0	14991	4268.560346766131	454
0	15015	4275.527343094328	455
0	15032	4282.699704338876	454
0	15041	4287.088549047493	453
0	15044	4287.499635873168	454
0	15051	4288.56615560287	455
0	15063	4289.642210147939	456
0	15082	4292.86431995873	457
0	15083	4293.541579608821	456
0	15087	4293.908915389449	457
0	15117	4303.318372585683	458
0	15133	4306.520523544608	457
0	15136	4307.287345672537	458
0	15142	4308.24975661889	459
0	15169	4313.002510183738	458
0	15173	4316.758169591033	459
0	15206	4328.428102781381	460
0	15225	4334.717900288836	459
0	15231	4337.460297764523	460
0	15270	4346.38132544543	461
0	15291	4353.789904494885	462
0	15298	4355.105280103329	461
0	15301	4355.133258265855	462
0	15325	4360.520467738375	461
0	15328	4360.924894264812	462
0	15343	4363.474643910789	463
0	15360	4367.522377298452	462
0	15363	4370.501936710026	463
0	15415	4388.938681898201	464
0	15455	4397.458474228198	465
0	15464	4401.316657546629	464
0	15474	4404.061674896682	465
0	15486	4408.246776874604	464
0	15489	4408.340486154707	465
0	15504	4413.342018407129	464
0	15508	4413.740096870598	465
0	15517	4415.10018266672	466
0	15523	4417.500606239451	465
0	15529	4422.273577508513	466
0	15546	4426.880721451099	465
0	15556	4429.323410094561	466
0	15566	4434.196053769566	467
0	15594	4443.691805276397	468
0	15607	4446.452807094625	469
0	15623	4448.687163243787	470
0	15639	4454.479608639854	471
0	15641	4455.75110923121	470
0	15650	4458.870643805592	471
0	15664	4466.519957827796	470
0	15667	4467.821759298757	471
0	15684	4472.046077117654	470
0	15692	4473.28567584566	471
0	15695	4475.49639815889	472
0	15702	4477.198712552705	471
0	15715	4479.526510537065	472
0	15723	4481.797555401415	473
0	15746	4488.110864878481	474
0	15791	4501.1297411547	475
0	15811	4507.220577451946	476
0	15831	4512.349364524923	477
0	15870	4519.469191955287	478
0	15884	4527.497607910959	477
0	15891	4529.207274901122	478
0	15915	4533.92226818841	477
0	15939	4549.536922053781	478
0	15951	4550.534162423081	479
0	15956	4553.493564997983	478
0	15962	4555.212565634942	479
0	15979	4562.016580222952	480
0	16002	4569.259052851309	479
0	16005	4569.505873715604	480
0	16015	4572.226766513726	481
0	16028	4575.176428378758	480
0	16042	4577.302747607959	481
0	16043	4578.375860174684	480
0	16046	4578.410485901419	481
0	16055	4582.356208818252	480
0	16062	4585.43883277459	481
0	16079	4593.486237277514	480
0	16082	4594.020743003934	481
0	16095	4598.608528473636	482
0	16122	4608.00135625675	483
0	16139	4613.903206173615	482
0	16145	4615.38563754746	483
0	16157	4618.340169205211	482
0	16160	4618.584460515279	483
0	16171	4624.945887273771	484
0	16183	4627.476510080872	485
0	16211	4637.902225983918	486
0	16222	4639.064902831358	485
0	16225	4641.317175445734	486
0	16231	4643.028603096346	487
0	16251	4648.07919355495	488
0	16263	4654.41669095266	489
0	16267	4655.805056728269	488
0	16282	4663.247718123239	489
0	16283	4663.309574380306	488
0	16294	4665.757144799307	489
0	16311	4669.862360206452	490
0	16329	4675.586484855891	489
0	16339	4679.357801602158	490
0	16340	4681.158892120458	489
0	16343	4681.676138323758	490
0	16359	4688.323507975257	491
0	16391	4694.132135536743	492
0	16423	4704.777042757372	493
0	16439	4708.995209525961	494
0	16457	4712.774878186772	495
0	16466	4715.429301433709	494
0	16469	4715.742935367366	495
0	16479	4718.719747791269	496
0	16480	4719.371734072619	495
0	16483	4720.162437310031	496
0	16493	4725.71069191005	495
0	16497	4728.318437931986	496
0	16501	4729.594247034874	495
0	16505	4732.482406361246	496
0	16514	4736.329019840541	497
0	16526	4740.691486043566	496
0	16535	4741.546501098109	497
0	16554	4747.755158048899	498
0	16555	4748.370376482998	497
0	16558	4748.406726983948	498
0	16583	4752.610617777495	499
0	16588	4757.662028514495	498
0	16594	4761.189185707562	499
0	16606	4763.703028171078	498
0	16609	4763.866874970405	499
0	16619	4764.529262732	500
0	16639	4770.213341217776	501
0	16649	4773.309607744464	500
0	16655	4775.449609839906	501
0	16658	4775.483501261926	502
0	16668	4779.362052434379	501
0	16678	4781.580302641106	502
0	16685	4784.977535567275	501
0	16690	4789.485264539524	502
0	16715	4794.271120873958	503
0	16738	4802.382937891445	504
0	16740	4803.835808105286	503
0	16743	4804.204499310575	504
0	16768	4809.934140384853	503
0	16771	4810.090173340884	504
0	16783	4813.350403649345	503
0	16786	4813.89494990148	504
0	16806	4817.140573846962	505
0	16814	4818.558921962308	504
0	16820	4821.532566926073	505
0	16827	4822.859179829007	506
0	16854	4836.974018743709	505
0	16857	4837.533099782731	506
0	16863	4839.315865648406	507
0	16887	4848.007469969291	508
0	16911	4860.262249688803	509
0	16941	4863.591272651182	510
0	16959	4867.43875617156	509
0	16968	4871.714267677031	510
0	17007	4880.484329122117	511
0	17051	4888.023688815619	512
0	17079	4895.671146256231	513
0	17080	4895.915525213681	512
0	17086	4897.821344837371	513
0	17106	4902.87203509495	514
0	17127	4906.97471258956	515
0	17149	4918.728724931746	514
0	17152	4919.177071327996	515
0	17155	4919.190073171688	516
0	17175	4924.430854366929	515
0	17190	4928.619635729649	516
0	17199	4930.293709315035	517
0	17227	4935.171356293044	518
0	17229	4935.957887792271	517
0	17235	4936.768556493808	518
0	17260	4939.008898361309	519
0	17299	4947.79543919117	520
0	17315	4955.108425787076	521
0	17316	4956.392830753596	520
0	17323	4958.293451841702	521
0	17359	4968.097315284516	522
0	17366	4968.478674660215	521
0	17381	4975.345410411372	520
0	17387	4976.330449543302	521
0	17394	4978.438458368865	520
0	17399	4980.649181106424	521
0	17405	4982.338410840423	522
0	17414	4986.257171830935	521
0	17417	4986.967186154429	522
0	17431	4992.59975674536	523
0	17459	5004.737029838264	522
0	17465	5006.272153405673	523
0	17485	5012.314693447887	522
0	17497	5014.592012556039	523
0	17507	5017.153705237693	524
0	17518	5019.853315401226	523
0	17521	5020.403529429618	524
0	17527	5023.600591639292	523
0	17536	5024.875531352174	524
0	17545	5026.591801588398	525
0	17550	5027.172942161441	524
0	17554	5028.784169592552	525
0	17571	5031.41317626888	526
0	17582	5036.297540213514	525
0	17590	5038.517052139851	526
0	17607	5042.149576830576	527
0	17609	5043.789795253588	526
0	17622	5046.525407229802	527
0	17626	5047.104594723754	526
0	17630	5047.803318549796	527
0	17655	5056.401447180166	528
0	17697	5067.833447922224	529
0	17698	5068.625190996341	528
0	17701	5068.695302567037	529
0	17718	5070.264173976583	530
0	17733	5072.425536204744	529
0	17746	5075.784653828416	530
0	17758	5078.573152837766	531
0	17785	5088.000439964659	532
0	17810	5095.010831999258	531
0	17817	5096.612753772203	532
0	17823	5099.806640993698	531
0	17830	5100.980367217112	532
0	17858	5107.983692074584	533
0	17871	5111.483677294953	534
0	17887	5116.072884022326	535
0	17894	5118.441721243	534
0	17897	5121.194880147804	535
0	17903	5121.853789779661	536
0	17923	5125.445074590948	537
0	17954	5132.868659798389	538
0	18002	5148.890703158041	539
0	18015	5150.443472970395	540
0	18016	5151.564548456025	539
0	18037	5160.221121631561	540
0	18049	5161.384045408884	539
0	18057	5164.523449761498	540
0	18077	5168.412283930472	541
0	18089	5170.335109150421	540
0	18093	5171.229473476528	541
0	18110	5177.164787287766	542
0	18115	5178.284106556446	541
0	18119	5182.573409034377	542
0	18127	5185.934385752883	541
0	18138	5189.999212293232	542
0	18170	5196.599867858204	543
0	18171	5196.74984393167	542
0	18175	5197.763175324266	543
0	18202	5207.260524655656	542
0	18212	5208.728738191925	543
0	18219	5209.922501699547	544
0	18234	5216.540920759251	543
0	18246	5220.920623366726	544
0	18279	5233.333246789022	545
0	18280	5233.833171303374	544
0	18283	5234.080473478151	545
0	18287	5237.704312122296	544
0	18290	5237.783003601753	545
0	18303	5239.596331535844	546
0	18307	5243.508696913803	545
0	18318	5247.185778793028	546
0	18333	5248.916930381972	547
0	18347	5252.420377617999	546
0	18350	5252.828496938036	547
0	18367	5254.966565787089	548
0	18399	5265.519875059116	549
0	18410	5271.452709871447	548
0	18413	5272.376002553827	549
0	18426	5274.263984586781	550
0	18451	5281.82099549796	549
0	18454	5282.399322996552	550
0	18463	5285.10286643264	551
0	18465	5287.585183078391	550
0	18479	5289.797997257967	551
0	18497	5295.514721515683	550
0	18500	5296.337225452465	551
0	18520	5298.581843501648	550
0	18523	5299.564059863779	551
0	18535	5300.678122347489	552
0	18553	5304.458125123794	553
0	18555	5305.221903164676	552
0	18562	5306.103873839788	553
0	18579	5310.828676395877	554
0	18615	5321.081167445268	555
0	18631	5327.179092078298	554
0	18637	5329.416164237225	555
0	18682	5342.509843093876	556
0	18702	5346.715832658768	557
0	18738	5355.65985607743	558
0	18747	5361.226762926641	557
0	18754	5364.976747898658	558
0	18779	5373.799430652985	559
0	18795	5377.929080478914	560
0	18811	5382.660594253609	561
0	18823	5385.980329546653	562
0	18854	5396.048466745159	563
0	18858	5396.660129232964	562
0	18863	5398.707469205526	563
0	18875	5401.917157094873	564
0	18895	5410.588905172678	563
0	18914	5412.89933221262	564
0	18943	5420.150394947266	565
0	18944	5421.750742437289	564
0	18947	5423.475197735366	565
0	18966	5428.203944389953	566
0	18972	5433.935294279334	565
0	18985	5438.247810295763	566
0	19016	5448.239949726611	565
0	19019	5448.336467191017	566
0	19022	5448.817692074115	567
0	19035	5450.871410119082	568
0	19047	5453.497752131376	569
0	19070	5458.663221020946	568
0	19074	5459.938426270619	569
0	19083	5462.344615078841	570
0	19090	5463.624218856569	569
0	19094	5464.784784321654	570
0	19117	5474.052753496372	569
0	19125	5477.080014632695	570
0	19134	5481.913521485579	571
0	19178	5494.987942211197	572
0	19209	5501.459373353506	573
0	19229	5505.714799052591	572
0	19232	5505.885678757092	573
0	19241	5509.412775771732	572
0	19250	5511.697010011762	573
0	19262	5514.640377521889	574
0	19280	5518.804704023099	573
0	19284	5519.618289297632	574
0	19287	5519.780915688245	575
0	19315	5524.975709370944	576
0	19319	5526.512456357841	575
0	19322	5530.376211176892	576
0	19343	5537.338874144812	577
0	19350	5539.419271283837	576
0	19353	5539.467076254643	577
0	19369	5545.013172761479	576
0	19377	5548.057318055485	577
0	19399	5553.293251891092	578
0	19418	5555.574673449619	579
0	19443	5565.014756315934	578
0	19456	5568.75127837614	579
0	19471	5573.653502991506	580
0	19472	5573.714450852744	579
0	19475	5573.818439623111	580
0	19501	5581.255034686986	579
0	19507	5581.869979132478	580
0	19510	5581.999133212618	581
0	19538	5590.168371342066	582
0	19559	5596.706936059586	583
0	19594	5607.637174912287	582
0	19603	5608.435510718666	583
0	19611	5610.993870502172	584
0	19630	5614.288719734971	585
0	19654	5628.112388149947	584
0	19659	5635.994138499801	585
0	19683	5643.141391163771	586
0	19715	5651.060635807743	585
0	19721	5653.429187104078	586
0	19727	5655.905176026646	587
0	19739	5656.800982852052	588
0	19759	5662.377482971193	589
0	19782	5670.016441517751	588
0	19785	5670.570256492992	589
0	19791	5671.368698234497	590
0	19814	5677.691446559811	591
0	19833	5679.514746149604	592
0	19837	5680.105189214591	591
0	19841	5680.996886801264	592
0	19863	5684.258937144636	593
0	19895	5695.59808216152	594
0	19958	5710.985320730402	595
0	19959	5711.409606283874	594
0	19963	5713.000178060371	595
0	19983	5716.388217673059	596
0	20007	5725.83702025936	597
0	20042	5731.924139224746	598
0	20044	5732.558802605078	597
0	20051	5737.114478634524	598
0	20071	5747.841940889516	599
0	20075	5748.609687393903	598
0	20079	5750.342009288513	599
0	20119	5765.394315886494	600
0	20137	5769.280358555198	601
0	20199	5788.082609372076	602
0	20215	5792.056344238193	603
0	20226	5797.809690990826	602
0	20230	5799.556167196374	603
0	20275	5808.063121304746	604
0	20279	5814.426544318719	603
0	20284	5819.721257194921	602
0	20293	5820.91452503669	603
0	20330	5828.54204760999	604
0	20366	5840.342562489136	605
0	20383	5843.679231792841	606
0	20392	5851.113485878098	605
0	20398	5854.896640440293	606
0	20410	5855.738654477258	607
0	20412	5856.456473027202	606
0	20415	5857.574724477527	607
0	20467	5876.137847512026	608
0	20486	5878.350172478817	609
0	20499	5881.391636736357	610
0	20500	5883.042735583915	609
0	20503	5883.367842479416	610
0	20518	5885.801240445139	611
0	20523	5886.980043242531	610
0	20535	5889.139233024691	611
0	20551	5893.270102629547	612
0	20566	5895.304664810791	613
0	20583	5897.817319944727	614
0	20609	5904.190550186623	613
0	20612	5904.929399551856	614
0	20615	5905.199356772152	615
0	20651	5918.322856883037	616
0	20695	5935.9281489254	617
0	20699	5938.383465750932	616
0	20713	5940.949907285051	617
0	20735	5949.444151615994	618
0	20770	5960.493299910571	619
0	20798	5967.723512129361	620
0	20827	5971.924047947122	621
0	20830	5974.962169699414	620
0	20847	5980.138805462432	621
0	20857	5983.718608790813	620
0	20861	5984.848572110169	621
0	20867	5987.41832965894	620
0	20871	5988.063745933021	621
0	20881	5992.889879673693	620
0	20891	5996.761596852502	621
0	20917	6001.527776078043	622
0	20949	6008.073233505635	621
0	20959	6009.185619680668	622
0	20982	6016.589147205653	623
0	21005	6025.625734574428	622
0	21008	6025.930656718643	623
0	21023	6031.797034183152	624
0	21027	6032.474080737525	623
0	21030	6032.482613661105	624
0	21039	6035.698239160453	623
0	21045	6037.657843890516	624
0	21054	6038.174669288297	625
0	21064	6042.488332621794	624
0	21073	6048.25540021778	625
0	21083	6050.250791407653	626
0	21098	6055.132462084842	625
0	21101	6056.77556243184	626
0	21118	6061.354976078098	627
0	21161	6073.272376500874	626
0	21165	6076.254617584442	627
0	21171	6076.402796404826	628
0	21194	6082.203185685539	629
0	21196	6084.965052695187	628
0	21199	6085.018942533603	629
0	21221	6088.933617096063	628
0	21224	6089.32949077028	629
0	21227	6089.497156388467	630
0	21245	6095.094677273855	629
0	21252	6097.180016610648	630
0	21255	6097.184730965103	631
0	21302	6106.992268659109	632
0	21326	6114.479512857987	633
0	21359	6120.600541365377	634
0	21390	6128.831162472929	635
0	21396	6130.946360761041	634
0	21403	6131.977628685029	635
0	21422	6137.623609243944	634
0	21425	6140.384933357107	635
0	21429	6141.046921531967	634
0	21436	6142.969525801462	635
0	21443	6145.224929806698	636
0	21469	6153.112144960907	637
0	21495	6163.384501718143	638
0	21518	6167.31783612982	639
0	21546	6171.012945436942	640
0	21563	6173.860539718985	641
0	21584	6180.624846427449	640
0	21593	6181.286494881277	641
0	21643	6199.549608977741	642
0	21663	6203.521288022021	643
0	21679	6207.872960993987	644
0	21680	6209.287901024077	643
0	21683	6209.31839044486	644
0	21698	6212.482823634457	645
0	21702	6213.671937490212	644
0	21710	6215.188166337813	645
0	21726	6217.839493083288	646
0	21746	6223.423089784948	647
0	21773	6232.267610803647	646
0	21776	6232.503731443521	647
0	21779	6232.826227514061	648
0	21795	6235.653560381089	649
0	21798	6237.033718712074	648
0	21826	6243.144810957226	649
0	21842	6253.985986201852	648
0	21845	6254.866334073717	649
0	21857	6258.463584497306	648
0	21860	6258.508070684755	649
0	21863	6259.880453513184	650
0	21875	6262.756667955835	651
0	21898	6273.940591675825	650
0	21902	6276.931198615346	651
0	21911	6279.301959584232	652
0	21926	6282.358925542675	653
0	21927	6282.428950440864	652
0	21931	6282.888827619012	653
0	21965	6288.25055612976	654
0	21983	6296.581745838414	655
0	21987	6298.065806844	654
0	21990	6298.815003704167	655
0	22017	6308.005162226388	654
0	22020	6308.703269173977	655
0	22023	6310.308631434013	656
0	22051	6316.370988893111	657
0	22067	6318.499911991601	658
0	22071	6319.683340749834	657
0	22079	6323.453524069303	656
0	22085	6324.34763915239	657
0	22088	6324.390033784072	658
0	22107	6329.593735613383	659
0	22116	6334.231845258219	658
0	22130	6336.56825646875	659
0	22157	6342.306878518756	660
0	22165	6345.932049575165	659
0	22181	6348.655486451699	660
0	22189	6353.740278645346	659
0	22201	6358.625672179642	660
0	22202	6358.779584129494	659
0	22210	6359.393551915289	660
0	22238	6367.094713366993	661
0	22258	6371.397873316887	662
0	22286	6377.066568112268	663
0	22294	6379.287035515479	662
0	22297	6379.843804680681	663
0	22307	6381.131424317334	664
0	22327	6385.904066001728	665
0	22337	6390.092746285409	664
0	22340	6390.695557591033	665
0	22345	6394.230354147883	664
0	22348	6394.767459719054	665
0	22351	6395.174743048021	666
0	22368	6400.945146781862	665
0	22375	6401.438509944331	666
0	22390	6403.629478015887	667
0	22412	6408.640426349781	666
0	22439	6418.884912466152	667
0	22441	6420.556590355518	666
0	22451	6422.495735265357	667
0	22463	6424.831200102197	668
0	22480	6428.800345730929	667
0	22484	6430.894187717261	668
0	22487	6431.661628589717	669
0	22498	6435.756881226753	668
0	22501	6436.590192430364	669
0	22511	6440.429883865176	670
0	22559	6454.601061210831	671
0	22575	6458.519452265893	672
0	22607	6469.210033685347	673
0	22619	6469.937974656125	674
0	22635	6473.802035466401	675
0	22639	6474.674267583065	674
0	22642	6476.138994100502	675
0	22651	6477.996093789771	676
0	22674	6489.144339837591	675
0	22697	6492.31054583452	676
0	22714	6495.102003859415	677
0	22725	6496.797911336853	676
0	22731	6497.140303479985	677
0	22738	6497.677461298279	678
0	22759	6504.761975747193	677
0	22769	6506.637237388442	678
0	22775	6508.164941686446	679
0	22779	6510.202776822081	678
0	22787	6511.214827868579	679
0	22802	6513.428268009005	680
0	22823	6517.854807356832	681
0	22828	6520.689092407835	680
0	22842	6526.378481426566	681
0	22859	6533.110550429625	682
0	22866	6535.171008964595	681
0	22869	6535.326462594849	682
0	22901	6544.327427015098	681
0	22904	6545.075426488037	682
0	22907	6545.438653635056	683
0	22927	6548.400844313255	684
0	22943	6552.234065280102	685
0	22947	6554.226366954285	684
0	22950	6556.543109946595	685
0	22962	6558.004976084123	686
0	22979	6560.950316589574	687
0	22994	6562.967483519094	688
0	23027	6569.990333959528	689
0	23028	6571.542515503598	688
0	23031	6573.450972885857	689
0	23055	6579.349918163773	690
0	23087	6584.009234252402	691
0	23103	6589.977475171241	690
0	23109	6592.61747578005	691
0	23113	6596.663136470425	690
0	23117	6600.112905600138	691
0	23121	6601.027243456882	690
0	23130	6604.787915402	691
0	23167	6611.824551832691	692
0	23179	6616.946070050658	691
0	23188	6621.191370450454	692
0	23194	6622.467292825402	693
0	23213	6628.447219466456	692
0	23222	6631.916345957924	693
0	23225	6633.085483650283	694
0	23228	6633.903187892751	693
0	23231	6634.481793654455	694
0	23242	6637.583182531667	693
0	23246	6640.772690532539	694
0	23255	6642.81849173205	695
0	23278	6649.839036865543	696
0	23291	6653.095892405111	697
0	23307	6656.56823632104	698
0	23327	6665.683538120854	699
0	23350	6675.269407050087	698
0	23353	6676.67930290183	699
0	23362	6680.282553426361	698
0	23365	6680.841104151419	699
0	23371	6681.083035365428	700
0	23394	6686.210534333946	699
0	23401	6688.315517096603	700
0	23407	6690.830864425417	701
0	23420	6695.504620638356	700
0	23426	6696.987095315679	701
0	23451	6700.924776380576	702
0	23470	6703.679177081532	703
0	23483	6707.990152062422	704
0	23487	6708.965358880299	703
0	23491	6712.587113868857	704
0	23509	6716.811172642158	703
0	23519	6719.425435513034	704
0	23526	6720.879979777236	703
0	23534	6725.178959079275	704
0	23547	6732.695253672473	705
0	23567	6739.589083096039	706
0	23593	6744.067993394634	705
0	23609	6751.252770955684	706
0	23625	6754.311310686759	707
0	23655	6762.440506967689	708
0	23656	6763.733892140043	707
0	23663	6765.001566537625	708
0	23667	6767.201199726759	707
0	23678	6772.030402531924	708
0	23704	6779.292412392084	709
0	23723	6782.564996408245	710
0	23748	6788.886077624783	709
0	23751	6788.949799656938	710
0	23754	6789.519741460699	711
0	23760	6795.877834666154	710
0	23771	6798.040305074841	711
0	23787	6801.699686566089	712
0	23803	6809.441998666016	713
0	23804	6810.06855839471	712
0	23807	6810.716936196447	713
0	23834	6816.697176956487	714
0	23865	6828.663580718468	713
0	23868	6829.234309931788	714
0	23871	6829.279095779076	715
0	23903	6840.422910121533	716
0	23914	6845.528250947479	715
0	23917	6845.540867394684	716
0	23930	6848.018609571457	717
0	23947	6849.988954477152	718
0	23948	6850.625570444333	717
0	23951	6852.738749369408	718
0	23967	6855.777724201706	719
0	23989	6861.893982418031	720
0	24014	6865.619288999039	721
0	24024	6874.419814908851	720
0	24038	6879.992742610182	721
0	24053	6886.198715210924	720
0	24059	6890.851587880857	719
0	24065	6891.90063814758	720
0	24069	6893.500729998629	721
0	24078	6894.852015325372	722
0	24083	6899.064809791802	721
0	24091	6900.947483552691	722
0	24110	6904.940943478375	721
0	24114	6905.660361255214	722
0	24135	6909.927875576968	723
0	24147	6916.357836524777	724
0	24154	6919.621231119202	723
0	24157	6920.113082983297	724
0	24172	6925.055665259363	723
0	24176	6925.352501748026	724
0	24187	6928.999285811315	725
0	24203	6932.113796045393	726
0	24204	6932.316470294153	725
0	24207	6934.080934458458	726
0	24257	6947.67489915612	725
0	24261	6948.156229195909	726
0	24267	6949.082699999962	727
0	24281	6954.412175125523	726
0	24284	6955.55199542696	727
0	24289	6957.554553537079	726
0	24292	6958.575604417018	727
0	24295	6959.26073388713	728
0	24299	6960.696928872261	727
0	24323	6967.010597792508	728
0	24335	6970.726566954891	727
0	24342	6971.889019354448	728
0	24355	6976.331227430193	729
0	24391	6983.333388235447	730
0	24403	6985.352666457455	731
0	24419	6988.95765971787	732
0	24447	6996.132631366362	733
0	24451	6998.385540991882	732
0	24454	6998.569035787388	733
0	24474	7004.25142936893	734
0	24495	7011.613990250906	735
0	24511	7013.817902940343	736
0	24512	7014.724683497382	735
0	24515	7015.671873158577	736
0	24531	7020.546923532699	737
0	24546	7027.257536966315	738
0	24582	7033.736990610671	739
0	24627	7042.124621174777	740
0	24628	7042.174918597555	739
0	24631	7042.512401470544	740
0	24655	7047.329073405378	739
0	24658	7047.832423001266	740
0	24667	7049.564147277851	741
0	24679	7052.569954145032	742
0	24719	7065.740445971918	743
0	24758	7080.027187693639	744
0	24760	7081.115024904182	743
0	24775	7086.514784747065	744
0	24776	7086.950800233303	743
0	24799	7094.763610889305	744
0	24818	7099.278733434076	745
0	24866	7115.314782827448	746
0	24882	7120.170347555807	745
0	24885	7120.299875132132	746
0	24900	7126.792954177921	745
0	24904	7127.039604205742	746
0	24911	7127.487703272342	747
0	24915	7130.493641071071	746
0	24923	7134.628737293928	747
0	24951	7142.94982268351	748
0	24966	7146.931182288682	747
0	24970	7148.391739788939	748
0	25001	7156.118034954885	749
0	25043	7169.666461168124	750
0	25070	7178.184916793606	751
0	25090	7187.10415584701	750
0	25099	7191.286271188484	751
0	25115	7193.360868563423	752
0	25135	7200.41118847389	753
0	25155	7205.057300721605	754
0	25194	7212.038107332192	755
0	25223	7216.170116916277	756
0	25235	7216.948485259233	757
0	25236	7217.030489429699	756
0	25241	7221.258852269555	755
0	25244	7221.468815885078	756
0	25250	7223.113543123527	757
0	25261	7226.310353354059	756
0	25264	7226.806452802128	757
0	25267	7227.259408509926	758
0	25296	7233.878935733514	757
0	25299	7234.51423204645	758
0	25309	7235.473039717899	759
0	25312	7236.964752139311	758
0	25315	7237.055499878419	759
0	25332	7240.795205554357	758
0	25336	7241.041366254343	759
0	25343	7241.897846195129	760
0	25363	7244.117730010059	761
0	25364	7244.802572416602	760
0	25367	7245.632011377334	761
0	25395	7252.802248095886	762
0	25396	7252.950484188053	761
0	25407	7256.864264068198	762
0	25435	7264.629550061907	763
0	25459	7271.037592216215	764
0	25475	7276.100796445396	765
0	25481	7279.893222338538	764
0	25503	7287.280598475962	765
0	25546	7296.756779554333	764
0	25556	7300.894053421554	765
0	25563	7302.365870981378	766
0	25602	7311.962660820207	767
0	25603	7312.894219339477	766
0	25607	7314.651553420056	767
0	25626	7318.949083203166	768
0	25639	7321.455574161857	769
0	25663	7329.303848169663	770
0	25685	7333.180799835928	769
0	25688	7333.742988576562	770
0	25691	7333.866507170496	771
0	25697	7337.254275756189	770
0	25703	7338.831449965211	771
0	25749	7358.928285869963	770
0	25752	7359.367210059076	771
0	25755	7361.277915632324	772
0	25768	7365.425515456163	771
0	25771	7365.721998625817	772
0	25774	7366.033007081631	773
0	25798	7372.287881645112	774
0	25818	7375.458077989068	775
0	25835	7377.550475531609	776
0	25847	7382.847129551572	775
0	25858	7384.786002067951	776
0	25867	7386.15782930733	775
0	25893	7391.362073168803	774
0	25896	7391.551131162378	775
0	25902	7392.102376461402	776
0	25913	7396.811289800901	775
0	25919	7397.312565629809	776
0	25943	7401.307399342343	777
0	25957	7405.515751806122	776
0	25967	7407.802325267276	777
0	25990	7414.016029000565	778
0	26000	7416.915669034486	777
0	26003	7418.841442400081	778
0	26031	7424.629376545693	779
0	26039	7427.887444760738	778
0	26047	7432.296895894409	779
0	26078	7439.25892199689	780
0	26103	7447.800746591574	781
0	26119	7450.001784494825	780
0	26125	7453.116065916054	781
0	26131	7457.194553391189	780
0	26134	7457.669588746318	781
0	26157	7461.831810314527	780
0	26160	7462.12529719934	781
0	26195	7471.83963154912	782
0	26227	7478.690740233527	783
0	26241	7484.439440514702	782
0	26270	7490.147861624981	783
0	26294	7496.963910483965	784
0	26307	7501.000496638542	785
0	26317	7503.423188404479	784
0	26320	7503.755892091498	785
0	26334	7505.413172694187	786
0	26363	7513.245027464292	787
0	26382	7516.717697221518	788
0	26423	7530.197446031267	789
0	26438	7533.945520658191	788
0	26441	7534.619504454383	789
0	26462	7541.97504086287	790
0	26471	7545.247105727705	789
0	26475	7546.427050060049	790
0	26479	7549.021966058179	789
0	26482	7549.03868799602	790
0	26507	7556.906737818112	791
0	26522	7559.459052178731	792
0	26538	7563.018745462347	791
0	26541	7563.326964226524	792
0	26554	7564.721740666507	793
0	26575	7568.655712231504	794
0	26594	7570.993109678794	795
0	26610	7573.793775286068	796
0	26626	7576.864692863072	797
0	26634	7577.551140144028	796
0	26640	7577.755951796015	797
0	26666	7587.765588457905	798
0	26697	7592.778579433037	799
0	26731	7603.45563217565	800
0	26742	7605.855566686473	799
0	26745	7607.077388693441	800
0	26774	7618.11112881195	801
0	26791	7623.369180385646	802
0	26799	7626.609914450461	801
0	26802	7626.681181258394	802
0	26819	7631.866615911791	803
0	26842	7636.704620918885	804
0	26846	7637.31133868361	803
0	26849	7637.594103947736	804
0	26880	7657.563908256814	803
0	26896	7663.850917774052	802
0	26899	7664.895625312328	803
0	26918	7671.459650418137	804
0	26927	7672.421394777105	805
0	26938	7675.528720520798	804
0	26946	7677.272291109178	805
0	26955	7682.078349275625	806
0	26969	7686.024118072467	805
0	26979	7686.960063018233	806
0	26990	7689.758172302554	805
0	26996	7691.164858946521	806
0	27001	7693.666093059956	805
0	27004	7693.932336324036	806
0	27010	7694.166970864568	807
0	27030	7704.188092719741	806
0	27033	7704.532132290564	807
0	27039	7705.828558316824	808
0	27070	7713.8468640661	809
0	27077	7714.98966091544	808
0	27080	7715.039223075073	809
0	27110	7723.621282714921	808
0	27118	7727.771562707751	809
0	27122	7728.469132217067	808
0	27126	7729.55671946017	809
0	27138	7732.154492449372	810
0	27159	7741.556011189678	811
0	27171	7748.097631932741	812
0	27183	7749.591862954632	813
0	27186	7751.015352521042	812
0	27202	7754.036145599588	813
0	27219	7756.875308812287	814
0	27242	7768.140715065872	813
0	27246	7768.820956078677	814
0	27259	7771.068644722681	815
0	27270	7774.078671593441	814
0	27273	7774.761226327439	815
0	27294	7779.845841680775	816
0	27318	7783.893602815109	817
0	27330	7788.762354149474	816
0	27335	7790.123436095645	817
0	27349	7791.858213712965	816
0	27352	7792.212294870207	817
0	27355	7792.53052146832	818
0	27362	7795.221129911898	817
0	27370	7797.348435024289	818
0	27374	7803.282803999339	817
0	27377	7803.543810815104	818
0	27386	7806.42040793024	819
0	27407	7810.234431781131	820
0	27430	7822.540603070749	819
0	27436	7823.599362616566	820
0	27443	7824.705363209166	821
0	27471	7834.583327428599	822
0	27483	7837.560149514891	823
0	27499	7839.585824271007	824
0	27511	7842.607406079044	825
0	27521	7845.072794520352	824
0	27527	7845.532898907686	825
0	27538	7846.61124811694	826
0	27559	7850.721252648837	827
0	27568	7852.862347436816	826
0	27571	7854.110444833718	827
0	27591	7859.0912561045	828
0	27618	7863.371950314385	827
0	27629	7865.521053568452	828
0	27649	7868.937528632163	827
0	27652	7869.367157220176	828
0	27655	7870.078170938811	829
0	27702	7884.840030449651	830
0	27712	7887.620584031957	829
0	27723	7889.077321731963	830
0	27755	7901.049220442182	831
0	27775	7906.138595678012	832
0	27794	7907.619837025927	833
0	27810	7910.843953696151	834
0	27827	7915.978852219833	835
0	27839	7919.068613140119	836
0	27851	7924.077632264005	837
0	27881	7930.803546947729	836
0	27892	7931.651122927645	837
0	27899	7934.235759205226	838
0	27907	7935.806116410043	837
0	27910	7935.971897012077	838
0	27927	7941.37927658094	839
0	27940	7945.440279483648	838
0	27946	7946.590909613878	839
0	27963	7950.168621310493	840
0	27982	7954.94780796175	839
0	27985	7955.544877114304	840
0	27991	7957.725561550044	841
0	28005	7961.747156886987	840
0	28011	7962.782428562884	841
0	28014	7962.990572486174	842
0	28031	7967.810848516768	843
0	28054	7974.666459179447	844
0	28070	7976.712522521024	845
0	28081	7979.227054641105	844
0	28084	7980.779026986212	845
0	28091	7984.090715057298	844
0	28095	7985.647847348243	845
0	28105	7986.900573500947	846
0	28123	7988.343586270275	847
0	28167	8000.805464771567	848
0	28187	8003.936311538559	849
0	28199	8005.726402009717	850
0	28223	8010.731062331151	851
0	28244	8019.138614529718	850
0	28253	8021.640722248086	851
0	28260	8022.884186104413	850
0	28267	8024.333431985943	851
0	28283	8030.253642853605	852
0	28302	8034.608937011721	851
0	28305	8034.71975405177	852
0	28318	8037.245276722138	853
0	28355	8047.014442590903	854
0	28397	8065.568127375366	853
0	28403	8066.963638416569	854
0	28407	8069.154026416565	855
0	28419	8073.527982855068	856
0	28435	8079.338458025797	857
0	28456	8082.331112006885	858
0	28493	8089.500270305954	859
0	28523	8098.529000494397	860
0	28537	8101.881353516103	859
0	28545	8104.127635517396	860
0	28551	8107.476207599835	861
0	28563	8108.363348174638	862
0	28575	8110.489462428817	863
0	28579	8111.180738199682	862
0	28583	8113.110096901302	863
0	28599	8114.478429673249	864
0	28611	8117.520917029693	865
0	28634	8126.485057706072	866
0	28655	8136.578271725712	867
0	28656	8136.764215210246	866
0	28659	8138.41968734095	867
0	28690	8146.881842563341	868
0	28716	8152.807367868992	867
0	28747	8163.85424524837	868
0	28766	8169.517124674424	869
0	28778	8172.46839599075	868
0	28781	8172.960225128919	869
0	28790	8173.680687370472	870
0	28821	8179.145977914154	871
0	28870	8187.213571905142	872
0	28895	8194.775132454383	873
0	28911	8198.409481799302	874
0	28931	8205.81336165496	875
0	28951	8214.76654589979	874
0	28962	8216.27475783974	875
0	28973	8219.384952471327	874
0	28977	8222.385443091188	873
0	28980	8222.497356911234	874
0	28983	8225.161178429014	875
0	29031	8239.932571200126	876
0	29062	8251.05488858952	877
0	29074	8255.475872627648	876
0	29089	8258.590679220592	877
0	29101	8262.455359663306	876
0	29104	8262.813410209997	877
0	29115	8264.47959465744	878
0	29131	8268.016119118965	879
0	29141	8270.083528448081	878
0	29144	8270.598394321577	879
0	29147	8270.904922211538	880
0	29159	8272.57627741916	881
0	29169	8275.190883538265	880
0	29172	8275.336405135201	881
0	29174	8280.067018667076	880
0	29177	8280.272875889113	881
0	29183	8281.523869238859	882
0	29190	8285.025054104177	881
0	29193	8285.693772786506	882
0	29202	8288.434433584513	883
0	29238	8295.634069935105	884
0	29251	8297.597763174837	885
0	29276	8301.281143322331	884
0	29284	8305.471644333655	885
0	29295	8308.999709732582	886
0	29323	8314.783019327215	887
0	29343	8318.562056690531	888
0	29359	8324.863426217223	889
0	29371	8328.101570939327	890
0	29382	8332.004636047729	889
0	29386	8333.271158272105	890
0	29431	8346.658307648649	891
0	29447	8352.13501791615	892
0	29453	8355.326508311026	891
0	29459	8357.335188037409	892
0	29479	8362.687138094704	893
0	29495	8368.119765490892	894
0	29518	8373.163927652004	895
0	29526	8375.19250536078	894
0	29529	8377.107286283783	895
0	29539	8378.43366388493	896
0	29548	8380.831589060084	895
0	29563	8386.100958694545	896
0	29575	8390.48778476116	897
0	29576	8390.781310798796	896
0	29579	8391.022246505726	897
0	29598	8396.069564709443	896
0	29605	8397.232375874272	897
0	29618	8399.358730512105	898
0	29647	8405.150662389296	899
0	29664	8408.909017762073	898
0	29668	8409.460243342957	899
0	29674	8410.260844137632	900
0	29691	8413.322418049091	901
0	29699	8418.291539922349	900
0	29702	8419.704847626435	901
0	29715	8421.711686161656	902
0	29722	8423.144994571252	901
0	29725	8423.777655749378	902
0	29735	8426.186575155491	903
0	29751	8433.588440602605	904
0	29773	8436.391625153925	905
0	29787	8442.836407168546	906
0	29821	8458.525718598879	905
0	29825	8460.813264946668	906
0	29837	8463.834890577548	905
0	29840	8467.039568905723	906
0	29847	8467.59950190985	907
0	29882	8475.351088651331	908
0	29903	8480.549939918824	909
0	29913	8482.405367248455	908
0	29916	8482.623380489169	909
0	29922	8484.495336582024	910
0	29946	8489.249846312954	909
0	29957	8491.623126530757	910
0	29962	8492.825632506396	909
0	29965	8492.830784374782	910
0	29975	8496.001295774544	911
0	29991	8498.505841298437	912
0	30019	8508.486095467973	913
0	30062	8520.422249170456	914
0	30073	8523.923601572774	913
0	30076	8524.299197198829	914
0	30087	8527.073361591547	915
0	30099	8528.6801620787	916
0	30115	8536.373021961657	915
0	30128	8540.730859104459	914
0	30134	8541.551921629816	915
0	30141	8543.692273692544	916
0	30161	8547.138447773182	915
0	30169	8549.316995319458	916
0	30187	8553.412485593459	917
0	30202	8556.460289665828	918
0	30206	8557.953105722373	917
0	30219	8564.799663656517	918
0	30231	8568.589104285999	919
0	30255	8574.811844428034	920
0	30263	8576.767324863046	919
0	30270	8578.390146706431	920
0	30334	8593.596533405497	921
0	30356	8600.996350165121	920
0	30359	8601.205048617214	921
0	30363	8601.376961609502	922
0	30377	8606.38460207947	921
0	30395	8612.055807413934	922
0	30435	8627.737322620423	923
0	30447	8633.750312398251	924
0	30466	8636.587015570804	925
0	30477	8642.454831997906	924
0	30480	8642.469165400546	925
0	30494	8644.455753760787	926
0	30521	8650.944033077147	925
0	30524	8651.396747760498	926
0	30545	8654.429027512905	927
0	30546	8655.276892188404	926
0	30549	8655.322083539813	927
0	30567	8658.047478787648	928
0	30586	8661.155365523451	929
0	30603	8664.779074569967	930
0	30619	8671.396952530163	931
0	30627	8675.498223642884	930
0	30630	8675.792531071364	931
0	30643	8679.759952489769	932
0	30667	8688.048112716003	933
0	30689	8691.976834870419	934
0	30690	8692.022270491234	933
0	30699	8695.72557885407	934
0	30727	8703.911018201343	935
0	30739	8705.712239733878	936
0	30759	8711.652357531782	937
0	30775	8723.376904175635	936
0	30787	8724.968857628773	937
0	30819	8730.565140830361	938
0	30823	8731.055666917978	937
0	30826	8731.678656691026	938
0	30843	8735.595248662261	939
0	30855	8739.615332655811	940
0	30871	8745.7886586529	939
0	30874	8748.01709374947	940
0	30884	8749.823904703092	939
0	30898	8758.788481745815	940
0	30921	8763.890387279305	941
0	30939	8770.932843077147	942
0	30951	8773.889484768129	943
0	30974	8780.51228921605	942
0	30977	8781.226225793522	943
0	30997	8790.51332076033	942
0	31001	8791.050031636958	943
0	31011	8793.895706777054	944
0	31015	8794.961343354789	943
0	31018	8795.782097005465	944
0	31035	8798.256885771783	945
0	31036	8798.470190042044	944
0	31042	8799.203236704697	945
0	31059	8804.060308602926	946
0	31079	8811.203800778216	947
0	31080	8811.346808591256	946
0	31083	8812.306248187395	947
0	31099	8814.989294313034	948
0	31111	8817.847221789607	949
0	31137	8825.489159472712	948
0	31148	8828.541642000117	949
0	31163	8830.201129450054	950
0	31192	8833.487123893091	949
0	31195	8833.52546710066	950
0	31203	8835.439373664269	951
0	31215	8840.285035410064	950
0	31226	8844.03361323229	951
0	31227	8845.321024692936	950
0	31231	8845.520268683156	951
0	31270	8856.038450221046	952
0	31295	8860.092781550338	951
0	31299	8860.81582770273	952
0	31302	8860.919159339557	953
0	31323	8867.579486557384	954
0	31339	8870.992701011623	955
0	31341	8872.943201782192	954
0	31363	8878.644005786356	955
0	31386	8883.134217187649	956
0	31428	8896.202856197752	955
0	31432	8897.799622680703	956
0	31435	8898.582664459337	957
0	31459	8902.862982221839	958
0	31475	8906.401244942349	959
0	31487	8908.527442041956	960
0	31506	8912.297000282046	961
0	31542	8917.449962458809	962
0	31555	8920.718798528047	961
0	31558	8920.841971698614	962
0	31578	8925.213777018951	963
0	31614	8935.421307012425	962
0	31622	8938.108461431157	963
0	31634	8943.748998398715	962
0	31637	8944.365603415915	963
0	31643	8944.493690429056	964
0	31678	8955.696253956103	965
0	31723	8964.608406222526	966
0	31741	8973.449608596309	965
0	31751	8975.562395260708	966
0	31767	8983.254017166597	967
0	31799	8992.34413225986	968
0	31835	8998.138060033602	969
0	31858	9005.267237890791	968
0	31878	9011.305297196728	967
0	31881	9011.698288411754	968
0	31895	9015.197101532534	969
0	31913	9020.972772415914	968
0	31916	9022.003887537743	969
0	31927	9024.96598341427	970
0	31941	9026.971207310259	969
0	31944	9027.841756202723	970
0	31951	9030.315258107027	971
0	31974	9039.109140631252	970
0	31977	9039.555774072208	971
0	31983	9040.250533486819	972
0	31994	9042.442412113734	971
0	31997	9043.038218431345	972
0	32011	9045.916546638998	973
0	32016	9047.444115135859	972
0	32023	9048.77121145923	973
0	32035	9051.762312664643	974
0	32075	9064.413346091439	975
0	32107	9071.070110588238	976
0	32112	9073.03680093302	975
0	32115	9073.385697508042	976
0	32129	9077.696897411392	975
0	32132	9078.100075209854	976
0	32138	9080.185674149067	977
0	32151	9082.861289130955	976
0	32154	9083.410623478683	977
0	32163	9085.431954362331	978
0	32170	9089.6145294115	977
0	32174	9090.741853814589	978
0	32187	9093.276784012973	979
0	32210	9103.095637364344	980
0	32223	9107.892300651742	979
0	32226	9109.157789443161	980
0	32239	9112.424915635039	981
0	32247	9115.909406537796	980
0	32253	9117.667144105146	981
0	32267	9123.36880337573	980
0	32271	9125.080704158861	981
0	32289	9130.101062925521	980
0	32292	9131.529004731793	981
0	32299	9133.967219864044	982
0	32311	9135.15719945599	983
0	32323	9136.763189531924	984
0	32335	9139.335861343597	983
0	32344	9140.063478713955	984
0	32362	9142.763664679619	985
0	32379	9146.818594225339	984
0	32382	9147.014329426726	985
0	32427	9160.61761908298	986
0	32443	9165.226374810627	987
0	32444	9165.573629076142	986
0	32447	9165.792106428517	987
0	32471	9170.69600608545	988
0	32491	9176.76778672853	989
0	32492	9177.103562551752	988
0	32519	9184.808925990867	989
0	32534	9187.848812179015	990
0	32562	9194.468582862002	991
0	32587	9200.698561557471	992
0	32619	9207.715342559423	993
0	32627	9212.016319475942	992
0	32641	9214.735409464832	993
0	32670	9223.102327573577	994
0	32690	9226.80945377125	995
0	32703	9233.645462143395	996
0	32715	9237.386939210201	997
0	32735	9244.128165108285	998
0	32739	9245.547694313044	997
0	32742	9245.966992677621	998
0	32755	9250.30289364393	999
0	32775	9255.298777098418	998
0	32780	9256.850524359604	999
0	32787	9258.047344084943	1000
0	32815	9264.344122600013	999
0	32820	9264.82787501969	1000
0	32826	9266.551865957459	1001
0	32843	9269.768861867891	1002
0	32845	9271.531844735248	1001
0	32867	9278.796410184405	1002
0	32868	9279.551955923721	1001
0	32871	9280.125998666431	1002
0	32895	9285.355842556277	1001
0	32898	9285.436338955818	1002
0	32906	9287.117653813877	1003
0	32923	9288.570221343002	1004
0	32934	9293.861854689589	1003
0	32937	9294.272041340927	1004
0	32951	9302.540544394451	1003
0	32963	9306.239669176405	1004
0	32975	9311.75377416079	1003
0	32982	9313.885738381695	1004
0	33031	9327.04052721418	1005
0	33032	9328.39911839877	1004
0	33042	9330.279567108344	1005
0	33059	9332.514230841611	1006
0	33087	9338.929136701954	1007
0	33107	9345.851691991786	1008
0	33121	9348.794465593545	1007
0	33124	9348.804510041595	1008
0	33141	9355.1488900156	1007
0	33146	9355.706860809415	1008
0	33162	9361.474153771016	1009
0	33180	9366.627904189095	1008
0	33191	9367.797395551667	1009
0	33195	9368.37403283528	1010
0	33214	9374.722497945213	1011
0	33227	9377.060192754282	1012
0	33239	9378.908274323381	1013
0	33263	9388.837766522795	1014
0	33270	9390.300249063101	1013
0	33280	9393.979615725923	1014
0	33286	9394.644917601962	1015
0	33311	9401.301869792265	1016
0	33326	9406.756595961366	1015
0	33332	9407.201747006334	1016
0	33343	9410.185146555555	1017
0	33359	9412.831963870228	1018
0	33378	9417.007222552534	1019
0	33379	9417.346324260777	1018
0	33383	9421.949671930155	1017
0	33389	9426.298806759942	1016
0	33392	9428.591593296469	1017
0	33395	9428.742578987212	1018
0	33414	9431.18118633008	1019
0	33435	9434.392949760977	1020
0	33439	9436.61196581138	1019
0	33454	9438.529350249445	1020
0	33462	9442.839917206846	1019
0	33465	9442.841963897032	1020
0	33477	9446.191095683799	1019
0	33481	9446.390542308543	1020
0	33495	9449.154670796265	1021
0	33507	9452.852373918397	1022
0	33526	9458.702028271236	1023
0	33550	9463.735984927422	1024
0	33556	9466.375636073859	1023
0	33559	9466.86109957423	1024
0	33583	9472.950474682269	1025
0	33619	9480.412039687878	1026
0	33623	9482.401267617677	1025
0	33630	9484.041686291105	1026
0	33632	9487.763823291166	1025
0	33638	9488.332875181496	1026
0	33664	9494.2539387795	1025
0	33670	9496.624077949103	1026
0	33675	9503.392070743208	1025
0	33678	9503.606477333755	1026
0	33687	9505.246653288326	1027
0	33707	9509.977152442544	1028
0	33719	9513.217420006147	1029
0	33738	9515.370248639967	1030
0	33751	9518.993583337417	1031
0	33775	9528.229611735063	1032
0	33794	9531.495831570228	1033
0	33817	9536.644476366537	1032
0	33820	9537.081239788583	1033
0	33823	9537.444165150025	1034
0	33838	9541.005037360219	1033
0	33842	9541.747048271708	1034
0	33851	9543.344242356106	1035
0	33883	9551.66698226669	1036
0	33910	9558.287103556533	1037
0	33911	9558.474622046999	1036
0	33914	9559.446807483653	1037
0	33938	9566.994916597404	1038
0	33963	9574.465042815907	1039
0	33982	9577.300956834575	1040
0	34012	9581.135224128842	1039
0	34015	9581.331731259789	1040
0	34019	9583.2414903088	1041
0	34039	9588.253725499996	1042
0	34051	9589.816456490227	1043
0	34078	9593.358751720964	1044
0	34106	9598.361951477733	1043
0	34109	9599.110837366942	1044
0	34115	9600.14922942844	1045
0	34121	9602.534497162396	1044
0	34143	9611.38365148576	1045
0	34155	9614.865188016241	1046
0	34170	9617.224183157083	1045
0	34177	9620.58137976935	1046
0	34189	9624.340134151716	1045
0	34192	9624.731867543249	1046
0	34206	9626.986240532914	1047
0	34233	9634.226856998398	1046
0	34241	9635.247308817563	1047
0	34251	9639.845340044078	1048
0	34267	9643.61885533459	1049
0	34302	9650.854133728628	1050
0	34354	9660.407220886029	1051
0	34359	9662.963664563582	1050
0	34362	9663.364659559767	1051
0	34374	9664.604197762078	1052
0	34397	9669.373079572954	1053
0	34445	9681.765797433777	1054
0	34453	9682.92526955536	1053
0	34458	9684.004204455948	1054
0	34470	9690.279275006443	1053
0	34480	9693.277225545111	1054
0	34491	9694.262204791754	1055
0	34506	9695.400640693998	1056
0	34526	9701.573747857553	1055
0	34536	9702.41886759671	1056
0	34542	9704.012315455095	1057
0	34559	9709.341489503803	1058
0	34571	9712.061012331797	1059
0	34594	9717.150100068104	1060
0	34618	9729.358438928997	1061
0	34620	9730.89724233967	1060
0	34630	9733.461074727031	1061
0	34636	9734.320994118894	1060
0	34657	9741.933596287696	1059
0	34664	9744.978679686415	1060
0	34667	9745.188924255892	1061
0	34699	9754.110292828793	1062
0	34718	9759.964872637437	1063
0	34729	9761.641853510295	1062
0	34733	9762.831313543125	1063
0	34747	9765.384026904668	1064
0	34779	9776.92310040127	1065
0	34807	9785.882543960387	1066
0	34855	9803.100164784939	1065
0	34858	9803.774845676086	1066
0	34871	9806.626646060639	1067
0	34876	9811.324692866287	1066
0	34882	9812.932487746019	1067
0	34895	9814.990488794099	1068
0	34908	9820.457368924035	1067
0	34911	9820.872020341679	1068
0	34935	9832.503399864171	1069
0	34974	9839.050623705136	1070
0	34992	9844.333589526739	1069
0	34996	9845.835699764645	1070
0	34999	9846.791913334604	1071
0	35011	9857.880160330989	1070
0	35021	9861.861944010213	1071
0	35030	9865.46413389266	1070
0	35033	9865.947978681539	1071
0	35046	9867.089502938056	1072
0	35053	9869.018210614191	1071
0	35059	9870.585951522439	1072
0	35071	9876.088946479025	1073
0	35095	9883.665218064166	1072
0	35105	9884.874954228079	1073
0	35133	9893.903495892694	1072
0	35136	9894.553577730977	1073
0	35139	9895.745856671668	1074
0	35144	9901.183377818447	1073
0	35153	9902.628052487149	1074
0	35171	9908.857484122971	1075
0	35191	9912.996519533697	1076
0	35226	9918.554569943574	1077
0	35243	9923.164155428215	1078
0	35247	9924.536737355319	1077
0	35250	9925.292635538176	1078
0	35270	9931.776105158668	1079
0	35319	9946.985428973392	1080
0	35321	9947.901380598922	1079
0	35335	9949.24887242361	1080
0	35347	9953.351963808432	1081
0	35367	9957.58180192506	1082
0	35389	9963.617960245274	1081
[...]
11	25036	7167.784413899755	4125.9395027623
11	25044	7170.995206553074	4127.9598436833
11	25075	7179.012146927432	4134.3774300311
11	25092	7188.546912556446	4135.1277936398
11	25116	7193.589790269198	4136.5933335616
11	25162	7206.408463513171	4143.0270889233
11	25237	7218.151648118528	4150.8305187165
11	25357	7243.494707943929	4170.9293937853
11	25382	7250.281680935993	4169.6063218417
11	25477	7278.042718858263	4187.0273687712
11	25514	7289.640473258774	4193.2390253582
11	25533	7293.475802449839	4192.9514780566
11	25574	7304.292213349404	4197.6772266672
11	25582	7307.706706276108	4192.5634533536
11	25696	7337.226551873337	4218.4806646383
11	25707	7342.929739371464	4221.2271845999
11	25779	7368.780266589938	4246.9501903935
11	25843	7382.322021621774	4247.8805356026
11	25871	7386.202913339729	4239.6700954152
11	25944	7401.353392069543	4253.5584224634
11	25953	7405.493419517181	4241.7864410673
11	25999	7415.821815406744	4250.0862744073
11	26040	7428.813305872367	4258.7062468884
11	26048	7433.390215479908	4256.3031397703
11	26104	7447.878632069132	4259.136505854
11	26126	7453.926881010128	4258.0566564583
11	26152	7460.981733505362	4259.3340853486
11	26184	7468.327961488328	4258.5192717572
11	26199	7473.084892343489	4258.0663708531
11	26246	7486.630505580189	4269.9236918915
11	26281	7493.210399850464	4265.4956923224
11	26339	7507.699928722635	4278.4135437888
11	26386	7517.511450284448	4277.2653960141
11	26395	7522.783223760605	4279.2335043657
11	26437	7533.077533336639	4283.2494140281
11	26537	7563.004180644447	4307.1482091277
11	26556	7566.076089226626	4309.8614972017
11	26648	7579.6920754795	4311.1691632682
11	26677	7589.003489213294	4318.3617740791
11	26795	7624.704068559973	4349.1894651803
11	26836	7636.425281244637	4356.5239431365
11	26875	7654.960983915296	4367.4415035544
11	26943	7677.242620296705	4377.3797778403
11	27086	7717.09418281116	4410.4353200317
11	27102	7722.500716055768	4413.3366583665
11	27123	7728.999378642437	4410.4343542466
11	27184	7749.804851579367	4431.1798702617
11	27220	7758.537089949637	4438.2209419761
11	27243	7768.753732232505	4444.0350351792
11	27287	7778.399224276594	4446.114948607
11	27332	7789.858347144495	4445.2121049694
11	27364	7796.960914539084	4446.2638217721
11	27395	7808.750935130534	4456.1629222734
11	27419	7818.442982666068	4460.3604310114
11	27551	7847.756798762233	4486.8498087521
11	27656	7870.406072214985	4500.0633371397
11	27678	7877.91386474469	4496.8638015059
11	27707	7886.935052441936	4501.3465608063
11	27759	7902.298611348868	4510.6435193215
11	27873	7929.249126364188	4533.1307174325
11	27928	7941.76424511155	4538.8951739003
11	27971	7951.584154551924	4546.4348061783
11	28036	7970.702056381545	4555.6811555465
11	28136	7994.979365181257	4576.018889306
11	28261	8023.538872695324	4603.6683233051
11	28294	8032.19582446759	4609.6046261089
11	28348	8046.076926682058	4620.507292903
11	28367	8053.680294511882	4620.0854959889
11	28393	8063.666717484042	4625.1874154178
11	28426	8076.070996207991	4630.614909014
11	28499	8090.334887315647	4638.8589187199
11	28527	8099.18813937784	4646.2003108721
11	28612	8117.747842769863	4657.9894892266
11	28636	8128.73183110677	4660.2639232967
11	28646	8133.168530889387	4659.52884279
11	28700	8149.99388672523	4672.2804710184
11	28721	8154.567362787718	4673.750521759
11	28741	8160.702423373371	4678.1450185859
11	28843	8182.994607116049	4697.6250885277
11	28943	8212.399821714005	4722.2046370978
11	28974	8220.061972501089	4726.7064073574
11	28995	8228.115022228994	4734.4385373332
11	29025	8236.451863820782	4739.3532901607
11	29076	8255.718503521905	4756.0267937371
11	29173	8277.026731430927	4774.1824738907
11	29210	8290.775821835619	4781.1911932107
11	29299	8309.982022852762	4797.1867705212
11	29334	8317.774685309445	4801.8601908384
11	29421	8344.166256306735	4825.1547012401
11	29503	8371.161706926736	4843.6449061629
11	29606	8397.877197233106	4866.9889010128
11	29678	8411.322081664584	4873.9620151472
11	29692	8414.758345559148	4873.5191986116
11	29799	8447.431005874996	4903.7451797422
11	29814	8456.671662692092	4911.5404969537
11	29833	8462.357794626005	4913.9144448136
11	29851	8468.610579753705	4909.8147607267
11	29897	8478.849551430245	4918.2989798917
11	29958	8491.690301601966	4928.6111396964
11	30039	8517.841532550236	4950.3738612973
11	30177	8551.060559792329	4981.6890112601
11	30210	8560.277277400948	4989.23471211
11	30245	8573.337257208408	4997.9911907571
11	30264	8577.489772424815	4994.7095590614
11	30310	8587.918322199222	4996.9609187681
11	30349	8600.40676793316	4995.448449723
11	30376	8606.272498186519	4997.035226539
11	30410	8617.032271995078	5001.8561858811
11	30488	8643.448028999467	5025.9699268585
11	30514	8650.028801277115	5030.6897793457
11	30539	8653.972779612458	5026.9830569513
11	30626	8674.799556555477	5037.7663779465
11	30658	8684.993449011181	5044.4862385159
11	30701	8697.877125021793	5054.1458782573
11	30771	8722.890939929147	5077.3447965095
11	30862	8740.350871408575	5085.3061280919
11	30958	8774.468227488785	5099.8182166637
11	30992	8786.943054259549	5111.6733441998
11	30998	8791.00185957495	5109.5395715415
11	31090	8814.061768429682	5128.6414327345
11	31181	8831.955239699884	5145.7329492427
11	31228	8845.349175545928	5151.1734667282
11	31258	8855.255495261256	5150.0304794025
11	31317	8864.042834444533	5150.1017485298
11	31324	8868.59060824279	5136.8088902881
11	31364	8879.254792582071	5145.1183369846
11	31401	8889.637612880072	5143.5550392115
11	31453	8901.910838053411	5150.5546398304
11	31507	8912.39383687185	5144.6205735732
11	31568	8923.109298102388	5147.3269969975
11	31626	8939.891490989339	5162.2580324044
11	31647	8948.125336223599	5166.2030908327
11	31700	8959.13837162936	5175.6077864077
11	31727	8966.701097627067	5177.7811291103
11	31737	8971.675266355943	5176.3020649374
11	31782	8988.834505278552	5189.1789385787
11	31803	8993.391554824696	5186.0036373747
11	31852	9003.042154320655	5191.3952229617
11	31865	9006.822637436382	5194.7352519853
11	31902	9016.446280559102	5201.2692185023
11	31917	9022.725663051409	5200.2690347214
11	31969	9037.286926495245	5210.0126425806
11	31999	9043.589590263911	5210.0139085523
11	32036	9054.583992842892	5218.3255895497
11	32059	9059.253810543901	5220.249891758
11	32098	9069.999879271917	5230.9504992165
11	32227	9109.287952277321	5260.2403258466
11	32246	9115.566538037725	5261.4070365627
11	32268	9124.76534487114	5265.9466157975
11	32395	9148.993702773454	5288.9005278621
11	32493	9178.191611031602	5314.7755059972
11	32588	9203.548196237767	5338.5558576882
11	32635	9213.796715508109	5334.7013790262
11	32858	9278.259341586312	5397.5447328119
11	32950	9301.819492251047	5416.6849012375
11	32968	9307.633264267281	5416.2235844118
11	32986	9314.746839309411	5421.292222314
11	33024	9324.877573304752	5421.6323313016
11	33060	9332.637165062509	5426.6423357818
11	33091	9340.816934162716	5428.9564849491
11	33117	9347.390284941278	5430.9504060203
11	33133	9351.839405085864	5434.9595821003
11	33142	9355.665239389874	5432.2971226286
11	33250	9384.118767797455	5459.6144609123
11	33319	9404.917912713076	5467.5885226779
11	33382	9421.019278337572	5474.1067862181
11	33469	9443.210223201753	5493.0221579002
11	33485	9447.518153889532	5492.0075320354
11	33514	9457.178011248762	5495.7163259007
11	33531	9461.253955049257	5489.7478360458
11	33603	9477.25849111772	5505.5852038069
11	33631	9485.110148585589	5511.7587925816
11	33648	9488.845989766781	5503.5996168636
11	33689	9506.377267670996	5520.449941957
11	33765	9523.72509497183	5533.9752726579
11	33779	9529.146483434615	5535.1091473983
11	33833	9539.950836620742	5537.4517190226
11	33922	9560.360922187546	5552.8976501093
11	33983	9577.330177986911	5566.4619826039
11	34023	9584.809942286569	5568.3751516134
11	34086	9594.072033431589	5575.7281538037
11	34130	9605.504077877111	5580.592978234
11	34229	9633.432703001583	5601.2819520632
11	34271	9644.080647817605	5610.6756863247
11	34338	9658.793589305799	5615.1100192723
11	34422	9677.183631983027	5630.1163977353
11	34508	9696.509377868458	5641.1043690743
11	34519	9699.84827890717	5638.3427875434
11	34585	9714.191781151884	5651.1873411661
11	34599	9720.132022346661	5647.5526989676
11	34631	9733.477050401032	5657.7717477879
11	34649	9739.410216129364	5658.4501201819
11	34709	9757.055522631049	5673.8337656249
11	34730	9761.838313661857	5675.7991450233
11	34762	9770.441620994269	5682.7336970722
11	34770	9773.953235904366	5677.4220021046
11	34827	9795.724865572109	5695.8135460776
11	34853	9802.856290743774	5702.4065721599
11	34904	9819.095031129147	5715.594051415
11	35000	9846.914975741023	5740.9706811674
11	35050	9867.557234279948	5754.1155466502
11	35084	9879.051160275845	5757.4635831673
11	35196	9914.119652685889	5791.8199634262
11	35351	9954.795190111031	5831.6339440394
11	35406	9966.164967832682	5838.4063024401
11	35426	9969.979479859331	5837.8482795456
11	35465	9983.192874963834	5842.087850389
11	35475	9986.817010082272	5836.4047949309
11	35492	9992.705773655384	5835.3795038211
12	316	94.447039535792	1
12	319	95.208985966378	0
12	357	100.995594251944	1
12	364	101.868868579172	0
12	922	264.217928753639	1
12	924	265.178153931951	0
12	1104	315.42038440816	1
12	1110	318.32826326913	0
12	1304	368.790069498542	1
12	1310	369.792906459246	0
12	1542	438.741831011073	1
12	1550	440.193003865277	0
12	1751	494.343396034546	1
12	1757	496.46617735405	0
12	2254	641.274418022642	1
12	2258	642.449775841569	0
12	2262	643.520684212153	1
12	2271	645.664538537251	0
12	2353	661.786737257784	1
12	2360	664.020785552958	0
12	2396	671.717683378521	1
12	2399	672.212737703805	0
12	3579	1010.338681753807	1
12	3586	1011.254158755196	0
12	4168	1177.269174761527	1
12	4183	1180.105019359845	0
12	4250	1198.330954813886	1
12	4261	1200.347152019958	0
12	4323	1219.66115510628	1
12	4330	1222.296935135131	0
12	4595	1304.427901278697	1
12	4599	1305.220164923092	0
12	5029	1424.669847341071	1
12	5042	1425.972689177945	0
12	5248	1475.127913996536	1
12	5256	1476.50346211197	0
12	5810	1637.808483796265	1
12	5812	1637.947115479972	0
12	6383	1789.852881254544	1
12	6385	1789.946508812263	0
12	7379	2079.103983135373	1
12	7390	2079.626524742957	0
12	8355	2360.709249570621	1
12	8370	2363.389058964012	0
12	8844	2505.894428790765	1
12	8845	2505.902075571654	0
12	8852	2507.219228092741	1
12	8866	2509.801726150939	0
12	8997	2555.518338507205	1
12	9002	2556.776154998393	0
12	9205	2621.464982685001	1
12	9222	2623.510445380494	0
12	9839	2811.162598092319	1
12	9853	2813.601867423347	0
12	10474	2999.026625614983	1
12	10481	3000.828777114199	0
12	11034	3168.727776565269	1
12	11035	3168.835343042239	0
12	12025	3459.032365624637	1
12	12048	3460.928576535107	0
12	13262	3803.734854446602	1
12	13265	3805.344578222988	0
12	14095	4033.629710663302	1
12	14098	4035.557461881317	0
12	14202	4066.740903929394	1
12	14204	4067.006397898223	0
12	14266	4084.326865860649	1
12	14271	4084.641751437042	0
12	14376	4105.18530863279	1
12	14378	4105.87976824863	0
12	14384	4106.261131260386	1
12	14389	4108.47568428507	0
12	14713	4201.993126284872	1
12	14718	4202.398593340975	0
12	14721	4202.637763484043	1
12	14731	4204.234391684781	0
12	14932	4253.111607924316	1
12	14936	4253.586438842717	0
12	16930	4862.778009081007	1
12	16946	4864.670816852415	0
12	16986	4877.350007437149	1
12	16992	4878.581029871326	0
12	17250	4938.577427947834	1
12	17271	4940.741512515981	0
12	17693	5067.517069308924	1
12	17709	5069.33918439167	0
12	18070	5167.396368357113	1
12	18085	5169.611316920476	0
12	18336	5248.991740301702	1
12	18337	5249.14307386817	0
12	18514	5298.295218641533	1
12	18526	5299.931580573279	0
12	19201	5500.557271490202	1
12	19206	5500.772584243723	0
12	19709	5650.073089167087	1
12	19714	5650.66176520512	0
12	19836	5679.75136843028	1
12	19844	5682.290010258064	0
12	19943	5708.140377272411	1
12	19946	5709.131106547548	0
12	20244	5802.076874082981	1
12	20256	5804.542859767351	0
12	20302	5822.058373826213	1
12	20308	5823.446349802886	0
12	20670	5922.380037229966	1
12	20674	5925.192667931373	0
12	20807	5969.042267966509	1
12	20812	5969.476832540941	0
12	21339	6116.580180878984	1
12	21343	6117.114586783795	0
12	22147	6340.703382362948	1
12	22160	6343.2787326367	0
12	22177	6348.369821965844	1
12	22183	6349.152000642806	0
12	22684	6489.904366555541	1
12	22699	6492.469451655517	0
12	23158	6609.741327723132	1
12	23160	6611.446264806861	0
12	23445	6699.831434489482	1
12	23447	6700.509925237143	0
12	23698	6778.820468631084	1
12	23705	6779.791122748535	0
12	23992	6862.422160240335	1
12	24001	6864.02050929054	0
12	24588	7034.351410942302	1
12	24594	7035.518216266441	0
12	24997	7155.338313562116	1
12	25002	7156.365974591137	0
12	25183	7210.575518466985	1
12	25195	7212.494640226291	0
12	25210	7215.21236397002	1
12	25215	7215.549403179855	0
12	25302	7234.705093058026	1
12	25310	7235.895979166156	0
12	26181	7467.106744516163	1
12	26183	7468.178870050929	0
12	26769	7616.095398081533	1
12	26781	7618.591407051479	0
12	26976	7686.726585994666	1
12	26980	7687.4051346361	0
12	27051	7708.117381122194	1
12	27055	7708.430211766759	0
12	27607	7860.932094332015	1
12	27608	7861.417740328876	0
12	28450	8081.54366201011	1
12	28468	8084.341783501672	0
12	28807	8177.857554015754	1
12	28808	8178.419865144531	0
12	28824	8179.202680047284	1
12	28826	8179.785608472628	0
12	29557	8381.897558941791	1
12	29560	8382.398891788709	0
12	29662	8408.55053170301	1
12	29679	8411.513443787948	0
12	29939	8486.821385741611	1
12	29941	8488.076517419317	0
12	30288	8581.745643326076	1
12	30291	8583.094829084242	0
12	30803	8727.204916009981	1
12	30811	8727.941340314218	0
12	31514	8912.673886419784	1
12	31530	8915.250917383472	0
12	31593	8929.972690565854	1
12	31594	8930.051083693732	0
12	31687	8956.249451849602	1
12	31693	8958.225231019702	0
12	31703	8959.707105455339	1
12	31710	8960.068460231075	0
12	31845	9000.336884541881	1
12	31847	9001.131151593751	0
12	32347	9140.191229796045	1
12	32348	9140.529867056387	0
12	32394	9148.706706491497	1
12	32398	9150.974906423308	0
12	32600	9204.834684915806	1
12	32616	9207.157566981044	0
12	32806	9262.546077572613	1
12	32811	9263.545649291114	0
12	32894	9285.11688559047	1
12	32907	9287.125167797694	0
12	33644	9488.375860443351	1
12	33657	9489.835013655081	0
12	34084	9593.503027557838	1
12	34102	9596.100927295982	0
12	34236	9634.682182469752	1
12	34242	9635.465498166847	0
12	34331	9658.075320869619	1
12	34339	9658.950540246523	0
12	35292	9941.410705607419	1
12	35297	9942.625407079706	0
13	319	95.208985966378	0.761946430586
13	364	101.868868579172	0.873274327228
13	924	265.178153931951	0.960225178312
13	1110	318.32826326913	2.90787886097
13	1310	369.792906459246	1.002836960704
13	1550	440.193003865277	1.451172854204
13	1757	496.46617735405	2.122781319504
13	2258	642.449775841569	1.175357818927
13	2271	645.664538537251	2.143854325098
13	2360	664.020785552958	2.234048295174
13	2399	672.212737703805	0.495054325284
13	3586	1011.254158755196	0.915477001389
13	4183	1180.105019359845	2.835844598318
13	4261	1200.347152019958	2.016197206072
13	4330	1222.296935135131	2.635780028851
13	4599	1305.220164923092	0.792263644395
13	5042	1425.972689177945	1.302841836874
13	5256	1476.50346211197	1.375548115434
13	5812	1637.947115479972	0.138631683707
13	6385	1789.946508812263	0.093627557719
13	7390	2079.626524742957	0.522541607584
13	8370	2363.389058964012	2.679809393391
13	8845	2505.902075571654	0.007646780889
13	8866	2509.801726150939	2.582498058198
13	9002	2556.776154998393	1.257816491188
13	9222	2623.510445380494	2.045462695493
13	9853	2813.601867423347	2.439269331028
13	10481	3000.828777114199	1.802151499216
13	11035	3168.835343042239	0.10756647697
13	12048	3460.928576535107	1.89621091047
13	13265	3805.344578222988	1.609723776386
13	14098	4035.557461881317	1.927751218015
13	14204	4067.006397898223	0.265493968829
13	14271	4084.641751437042	0.314885576393
13	14378	4105.87976824863	0.69445961584
13	14389	4108.47568428507	2.214553024684
13	14718	4202.398593340975	0.405467056103
13	14731	4204.234391684781	1.596628200738
13	14936	4253.586438842717	0.474830918401
13	16946	4864.670816852415	1.892807771408
13	16992	4878.581029871326	1.231022434177
13	17271	4940.741512515981	2.164084568147
13	17709	5069.33918439167	1.822115082746
13	18085	5169.611316920476	2.214948563363
13	18337	5249.14307386817	0.151333566468
13	18526	5299.931580573279	1.636361931746
13	19206	5500.772584243723	0.215312753521
13	19714	5650.66176520512	0.588676038033
13	19844	5682.290010258064	2.538641827784
13	19946	5709.131106547548	0.990729275137
13	20256	5804.542859767351	2.46598568437
13	20308	5823.446349802886	1.387975976673
13	20674	5925.192667931373	2.812630701407
13	20812	5969.476832540941	0.434564574432
13	21343	6117.114586783795	0.534405904811
13	22160	6343.2787326367	2.575350273752
13	22183	6349.152000642806	0.782178676962
13	22699	6492.469451655517	2.565085099976
13	23160	6611.446264806861	1.704937083729
13	23447	6700.509925237143	0.678490747661
13	23705	6779.791122748535	0.970654117451
13	24001	6864.02050929054	1.598349050205
13	24594	7035.518216266441	1.166805324139
13	25002	7156.365974591137	1.027661029021
13	25195	7212.494640226291	1.919121759306
13	25215	7215.549403179855	0.337039209835
13	25310	7235.895979166156	1.19088610813
13	26183	7468.178870050929	1.072125534766
13	26781	7618.591407051479	2.496008969946
13	26980	7687.4051346361	0.678548641434
13	27055	7708.430211766759	0.312830644565
13	27608	7861.417740328876	0.485645996861
13	28468	8084.341783501672	2.798121491562
13	28808	8178.419865144531	0.562311128777
13	28826	8179.785608472628	0.582928425344
13	29560	8382.398891788709	0.501332846918
13	29679	8411.513443787948	2.962912084938
13	29941	8488.076517419317	1.255131677706
13	30291	8583.094829084242	1.349185758166
13	30811	8727.941340314218	0.736424304237
13	31530	8915.250917383472	2.577030963688
13	31594	8930.051083693732	0.078393127878
13	31693	8958.225231019702	1.9757791701
13	31710	8960.068460231075	0.361354775736
13	31847	9001.131151593751	0.79426705187
13	32348	9140.529867056387	0.338637260342
13	32398	9150.974906423308	2.268199931811
13	32616	9207.157566981044	2.322882065238
13	32811	9263.545649291114	0.999571718501
13	32907	9287.125167797694	2.008282207224
13	33657	9489.835013655081	1.45915321173
13	34102	9596.100927295982	2.597899738144
13	34242	9635.465498166847	0.783315697095
13	34339	9658.950540246523	0.875219376904
13	35297	9942.625407079706	1.214701472287
14	3585	1011.130962814532	1
14	3593	1013.709732836864	0
14	9000	2555.734082115617	1
14	9007	2557.685787216244	0
14	10477	2999.412043834678	1
14	10479	2999.899090248574	0
14	12031	3459.31704607706	1
14	12046	3460.668726410208	0
14	14724	4202.850106271116	1
14	14730	4204.124891857328	0
14	16933	4862.884263907374	1
14	16942	4864.088001520682	0
14	17253	4938.607902593339	1
14	17254	4938.878500435084	0
14	17263	4939.223182156512	1
14	17272	4940.849529880073	0
14	19712	5650.170678474296	1
14	19717	5652.314995010934	0
14	20810	5969.327016290248	1
14	20811	5969.338170780219	0
14	22687	6490.030108827074	1
14	22694	6491.972592833433	0
14	25213	7215.323043504175	1
14	25214	7215.529982493196	0
14	28466	8083.320768039389	1
14	28471	8086.143658949409	0
14	31520	8912.986809948951	1
14	31521	8913.721940721078	0
14	31706	8959.738478919331	1
14	31711	8960.431435301474	0
14	33655	9489.57528983137	1
14	33658	9490.295878908022	0
15	3593	1013.709732836864	2.578770022332
15	9007	2557.685787216244	1.951705100627
15	10479	2999.899090248574	0.487046413896
15	12046	3460.668726410208	1.351680333148
15	14730	4204.124891857328	1.274785586212
15	16942	4864.088001520682	1.203737613308
15	17254	4938.878500435084	0.270597841745
15	17272	4940.849529880073	1.626347723561
15	19717	5652.314995010934	2.144316536638
15	20811	5969.338170780219	0.011154489971
15	22694	6491.972592833433	1.942484006359
15	25214	7215.529982493196	0.206938989021
15	28471	8086.143658949409	2.82289091002
15	31521	8913.721940721078	0.735130772127
15	31711	8960.431435301474	0.692956382143
15	33658	9490.295878908022	0.720589076652
16	12045	3460.659429190515	1
16	12049	3461.061520954446	0
17	12049	3461.061520954446	0.402091763931

