version 2
run Debugging_quick-0-20211221-22:56:30-12033
attr configname Debugging_quick
attr datetime 20211221-22:56:30
attr experiment Debugging_quick
attr inifile omnetpp.ini
attr iterationvars ""
attr iterationvarsf ""
attr measurement ""
attr network Network
attr processid 12033
attr repetition 0
attr replication #0
attr resultdir results
attr runnumber 0
attr seedset 0
param **.percentage_quick_tills 0.6
param **.quick_checkout_threshold 3
param **.number_of_tills 10
param *.externalWorld.arrival_mean 3
param *.externalWorld.service_distribution 0
param *.externalWorld.service_mean 5
param *.externalWorld.service_std_deviation 1
param **.logging true
param **.quick_tills[*].is_quick true
param **.standard_tills[*].is_quick false

vector 0 Network.supermarket.quick_tills[0] number_of_jobs_stat:vector ETV
attr source number_of_jobs
vector 1 Network.supermarket.standard_tills[0] number_of_jobs_stat:vector ETV
attr source number_of_jobs
vector 2 Network.supermarket.quick_tills[0] response_time_stat:vector ETV
attr source response_time
vector 3 Network.supermarket.standard_tills[1] number_of_jobs_stat:vector ETV
attr source number_of_jobs
vector 4 Network.supermarket.standard_tills[2] number_of_jobs_stat:vector ETV
attr source number_of_jobs
vector 5 Network.supermarket.standard_tills[1] response_time_stat:vector ETV
attr source response_time
vector 6 Network.supermarket.standard_tills[2] response_time_stat:vector ETV
attr source response_time
vector 7 Network.supermarket.standard_tills[0] response_time_stat:vector ETV
attr source response_time
vector 8 Network.supermarket.quick_tills[1] number_of_jobs_stat:vector ETV
attr source number_of_jobs
vector 9 Network.supermarket.quick_tills[1] response_time_stat:vector ETV
attr source response_time
vector 10 Network.supermarket.standard_tills[3] number_of_jobs_stat:vector ETV
attr source number_of_jobs
vector 11 Network.supermarket.standard_tills[3] response_time_stat:vector ETV
attr source response_time
vector 12 Network.supermarket.quick_tills[2] number_of_jobs_stat:vector ETV
attr source number_of_jobs
vector 13 Network.supermarket.quick_tills[2] response_time_stat:vector ETV
attr source response_time
vector 14 Network.supermarket.quick_tills[3] number_of_jobs_stat:vector ETV
attr source number_of_jobs
vector 15 Network.supermarket.quick_tills[3] response_time_stat:vector ETV
attr source response_time
vector 16 Network.supermarket.quick_tills[4] number_of_jobs_stat:vector ETV
attr source number_of_jobs
vector 17 Network.supermarket.quick_tills[4] response_time_stat:vector ETV
attr source response_time
0	3	2.387623513697	1
0	7	5.085652646256	0
0	17	17.199578983927	1
0	18	17.20015092204	0
0	21	23.05421499158	1
0	22	23.739757894546	0
0	25	25.415818411526	1
0	26	27.215882150805	0
0	33	32.705856034145	1
0	34	33.499404020276	0
0	38	35.636875313325	1
0	39	36.983395101706	0
0	42	38.751353215317	1
0	43	39.23577257783	0
0	46	40.206737706482	1
0	50	42.732452759854	0
0	54	42.992772714544	1
0	55	45.447158503476	0
0	58	49.663345980653	1
0	62	51.783228374689	0
0	66	59.783236827717	1
0	73	62.310499490075	0
0	81	68.844138962709	1
0	82	71.560835855838	0
0	86	73.860772563684	1
0	88	75.739868526973	0
0	97	80.598741163986	1
0	98	81.742363196951	0
0	103	82.095357191034	1
0	104	85.025374513588	0
0	110	95.315227241406	1
0	115	96.6193064911	0
0	127	100.239614665023	1
0	134	102.940069913966	0
0	143	116.430331853133	1
0	144	119.247058009842	0
0	147	120.947684629045	1
0	151	121.704049217404	0
0	154	127.522319963866	1
0	155	128.626186048289	0
0	177	158.620303011804	1
0	178	160.500496123877	0
0	181	160.825196275373	1
0	182	161.312162470997	0
0	207	179.131375607134	1
0	208	179.57577325009	0
0	218	190.127141016497	1
0	220	190.326330412274	0
0	223	194.391235056778	1
0	224	195.985722799187	0
0	227	196.604716932046	1
0	232	197.535343376838	0
0	241	201.394177737179	1
0	242	201.911804497957	0
0	249	206.477552060525	1
0	252	209.21074552096	0
0	261	213.042815356156	1
0	265	215.696153586462	0
0	268	215.99965355487	1
0	273	217.10008777845	0
0	276	217.231871694503	1
0	277	218.941715776868	0
0	281	220.1160145117	1
0	287	222.011461883727	0
0	300	228.542054887816	1
0	302	231.201780660093	0
0	307	237.175799951649	1
0	308	237.268087841646	0
0	311	244.162540074292	1
0	312	244.336384074602	0
0	334	262.278884809798	1
0	335	264.051523196662	0
0	338	265.867208208169	1
0	345	267.512812773477	0
0	351	276.867878810258	1
0	352	278.123823087918	0
0	355	280.164616212911	1
0	356	280.709373278369	0
0	359	283.341118607374	1
0	360	283.722091822667	0
0	363	286.672910944436	1
0	373	289.642982749358	0
0	376	289.688107411885	1
0	379	291.426075669453	0
0	385	294.992121374106	1
0	386	296.688930813689	0
0	389	297.80030605342	1
0	390	298.436578713337	0
0	393	299.156612234094	1
0	394	299.853086763915	0
0	401	302.869233286589	1
0	402	302.967018061868	0
0	405	302.986782755828	1
0	406	303.423419919442	0
0	419	321.099859242276	1
0	420	322.288786043268	0
0	426	331.001604492905	1
0	427	332.544748534611	0
0	430	334.175083732962	1
0	434	335.950822221653	0
0	441	338.429786661826	1
0	442	338.703982130448	0
0	457	361.178305018517	1
0	459	361.971692910309	0
0	469	366.598666797548	1
0	473	368.110811379908	0
0	477	370.370090045197	1
0	482	371.683511863092	0
0	488	372.477842332779	1
0	490	375.1504974997	0
0	504	380.642368166707	1
0	505	383.316075422805	0
0	513	385.818915956047	1
0	514	386.075137480462	0
0	525	399.419335647459	1
0	526	399.651365746354	0
0	534	404.621324355902	1
0	538	405.375241833135	0
0	550	416.671964658061	1
0	551	416.823236883294	0
0	569	447.155902171338	1
0	570	447.89535617269	0
0	574	449.293652951338	1
0	576	452.264509615765	0
0	579	460.57943480485	1
0	583	461.329343716846	0
0	589	465.336691734748	1
0	590	467.707427505135	0
0	593	469.369427551205	1
0	606	471.904233335978	0
0	614	483.970503090846	1
0	622	486.211800068081	0
0	636	492.591185382696	1
0	637	493.266361601432	0
0	661	510.160466845505	1
0	662	512.344774317926	0
0	665	513.698035426701	1
0	667	515.843482862156	0
0	674	518.704858570811	1
0	675	520.277918441079	0
0	679	524.714580138333	1
0	683	526.918992844565	0
0	689	529.995845321618	1
0	690	532.789723941093	0
0	701	545.36945684168	1
0	702	545.428145910271	0
0	718	557.127244244538	1
0	719	557.510526541629	0
0	722	558.277924886834	1
0	726	558.88732806425	0
0	734	567.150647822105	1
0	735	567.481706500083	0
0	738	567.574639962787	1
0	739	570.563026240919	0
0	742	570.699981925325	1
0	743	572.894913231793	0
0	754	581.028593271191	1
0	761	583.65099206543	0
0	778	589.745271585573	1
0	780	591.538373621994	0
0	784	595.042494802812	1
0	785	595.056867063052	0
0	795	596.916831631114	1
0	796	597.746690298666	0
0	801	600.314734057031	1
0	802	602.292146327979	0
0	814	607.43767409635	1
0	815	607.48291816025	0
0	826	622.270417465451	1
0	831	624.480568350035	0
0	847	635.843249006907	1
0	848	635.922987669999	0
0	855	642.63444973449	1
0	856	644.201166010466	0
0	878	668.235537894586	1
0	879	668.598829521768	0
0	882	670.013409976943	1
0	883	670.959177246556	0
0	890	677.422927799503	1
0	891	678.160417300952	0
0	900	692.92924319306	1
0	904	693.994937496271	0
0	914	703.401525882213	1
0	915	703.742921015138	0
0	918	704.993693372063	1
0	920	706.302873618967	0
0	934	717.135325282272	1
0	935	718.304883810693	0
0	941	720.874149288471	1
0	942	721.126955236144	0
0	954	740.909900798508	1
0	956	741.573393566555	0
0	959	743.573485029818	1
0	960	744.518876834993	0
0	963	747.44921283622	1
0	964	747.549614839039	0
0	967	750.682717488629	1
0	972	753.206217012465	0
0	975	755.055719185218	1
0	976	755.623608493607	0
0	979	764.432124258193	1
0	980	764.575698469499	0
0	986	768.316687015155	1
0	988	769.729901433535	0
0	991	769.823619409938	1
0	992	770.362298484498	0
0	998	774.371168076823	1
0	999	776.074598417125	0
0	1005	779.100690843011	1
0	1009	780.418946315693	0
0	1021	785.918125533348	1
0	1022	787.548984773012	0
0	1025	789.156086129315	1
0	1026	789.819021420299	0
0	1029	790.175080327062	1
0	1034	791.50548256163	0
0	1037	792.653786260924	1
0	1039	793.13389885008	0
0	1054	807.69207507292	1
0	1068	810.397868154482	0
0	1076	813.650628423311	1
0	1077	815.361390124777	0
0	1080	816.331815658228	1
0	1081	817.657990339763	0
0	1096	824.581349233651	1
0	1099	827.035325828773	0
0	1103	834.998955671498	1
0	1104	837.782516665768	0
0	1116	841.771970762219	1
0	1117	844.563414664217	0
0	1126	849.034753616059	1
0	1134	851.831178912377	0
0	1137	852.433618766777	1
0	1139	852.742558011389	0
0	1143	864.847048048308	1
0	1144	865.679319503914	0
0	1147	871.521792019984	1
0	1148	872.168597954922	0
0	1154	877.349182493434	1
0	1155	877.577056530707	0
0	1161	883.310471558085	1
0	1162	883.879082462034	0
0	1168	885.409529983942	1
0	1173	886.688569706221	0
0	1182	894.585058848824	1
0	1183	894.768375843808	0
0	1195	920.539440836538	1
0	1196	920.602618208702	0
0	1199	926.05863919177	1
0	1203	926.753625639366	0
0	1207	933.594781321159	1
0	1208	935.338028011808	0
0	1214	939.787356511123	1
0	1218	942.025161351651	0
0	1221	942.44908701823	1
0	1222	944.054558518252	0
0	1226	945.316986289997	1
0	1234	946.453329285024	0
0	1238	950.790623591317	1
0	1239	951.615805583021	0
0	1246	962.448369737653	1
0	1248	963.329780071593	0
0	1251	967.388527041634	1
0	1252	968.475760339992	0
0	1261	971.956551591822	1
0	1272	974.275736167549	0
0	1281	989.577404406943	1
0	1282	990.948587179444	0
0	1285	990.979222106173	1
0	1288	992.753178864449	0
0	1294	994.42669070615	1
0	1295	995.569721201733	0
0	1313	1016.95636649284	1
0	1318	1017.80907097071	0
0	1322	1022.81640150329	1
0	1323	1022.910156018351	0
0	1329	1023.638739126543	1
0	1330	1024.00171165031	0
0	1334	1027.982121372508	1
0	1335	1028.184583189357	0
0	1360	1050.078600092098	1
0	1363	1051.987555933967	0
0	1373	1053.505528569283	1
0	1374	1054.084469062109	0
0	1380	1054.768434715962	1
0	1387	1055.557746852992	0
0	1397	1061.990108179086	1
0	1401	1063.204609582758	0
0	1419	1086.79997923278	1
0	1420	1088.338855939169	0
0	1423	1089.61139538595	1
0	1424	1090.320753045226	0
0	1427	1093.26778579598	1
0	1428	1093.610972787351	0
0	1434	1096.08874829189	1
0	1435	1098.399593900022	0
0	1438	1100.681241970692	1
0	1442	1101.877185508928	0
0	1446	1103.300713303961	1
0	1447	1103.686514153017	0
0	1451	1106.215159778246	1
0	1456	1107.394872910397	0
0	1462	1112.5558921253	1
0	1466	1113.440804368888	0
0	1471	1128.008295000308	1
0	1472	1130.212179076132	0
0	1475	1136.172339768047	1
0	1480	1137.679994753357	0
0	1486	1143.370521791354	1
0	1487	1144.14364329095	0
0	1490	1145.671760755071	1
0	1491	1146.746610244217	0
0	1520	1177.518797711211	1
0	1527	1179.046648446783	0
0	1557	1198.092342202409	1
0	1559	1198.996392377754	0
0	1569	1211.432550244748	1
0	1570	1211.502799286947	0
0	1574	1214.855963953326	1
0	1589	1217.638661459993	0
0	1595	1220.074543621165	1
0	1601	1222.608805234665	0
0	1615	1242.397221440383	1
0	1616	1243.534926958069	0
0	1622	1246.704789026096	1
0	1623	1246.744963547713	0
0	1632	1249.719584454663	1
0	1633	1252.191129326437	0
0	1637	1255.504664865303	1
0	1642	1257.248989237258	0
0	1646	1259.799313051441	1
0	1647	1260.712630683011	0
0	1654	1265.165620763816	1
0	1655	1265.287604874652	0
0	1678	1286.052101315284	1
0	1679	1288.349413067603	0
0	1683	1299.971058894405	1
0	1687	1302.482665121124	0
0	1693	1304.432820759928	1
0	1694	1304.610167716872	0
0	1698	1307.696534060771	1
0	1699	1308.652068227654	0
0	1702	1314.803288573282	1
0	1715	1316.992537200283	0
0	1727	1327.668387497051	1
0	1728	1327.732358315438	0
0	1731	1328.825450579187	1
0	1732	1328.93424980768	0
0	1748	1344.273672122426	1
0	1749	1346.307390902581	0
0	1752	1349.608102132928	1
0	1753	1349.683766666998	0
0	1761	1354.782718031124	1
0	1767	1355.751832818685	0
0	1771	1360.965347809452	1
0	1775	1362.983159202992	0
0	1778	1363.04536165552	1
0	1779	1363.747404265522	0
0	1793	1376.620366817015	1
0	1795	1378.733957168882	0
0	1799	1380.037539769034	1
0	1800	1381.690325952382	0
0	1806	1391.024227615941	1
0	1807	1393.213533978116	0
0	1820	1401.887220999906	1
0	1821	1403.269211788722	0
0	1830	1411.502582220305	1
0	1831	1411.623451932152	0
0	1844	1423.816488591052	1
0	1849	1426.626801580514	0
0	1854	1434.007545773608	1
0	1855	1436.132991641765	0
0	1864	1438.190787821683	1
0	1866	1439.873180984879	0
0	1869	1441.920840155529	1
0	1871	1442.597225637513	0
0	1885	1448.710471350817	1
0	1891	1450.592023897849	0
0	1900	1455.8283645521	1
0	1904	1457.060382166954	0
0	1907	1457.423086586844	1
0	1909	1458.852839115117	0
0	1922	1471.000789678257	1
0	1923	1472.894259108039	0
0	1927	1475.124829539663	1
0	1931	1476.465980842424	0
0	1943	1482.453403781125	1
0	1947	1483.470170934233	0
0	1964	1493.851574716656	1
0	1965	1494.098244452497	0
0	1970	1496.351709438594	1
0	1971	1496.628793489656	0
0	1975	1501.857499647413	1
0	1976	1501.937501170716	0
0	1979	1502.464875938507	1
0	1990	1505.190181754572	0
0	2000	1507.889868937895	1
0	2001	1507.891879457482	0
0	2017	1524.634493049041	1
0	2018	1526.997169740081	0
0	2022	1528.757522092302	1
0	2023	1530.227382808868	0
0	2029	1533.191914414403	1
0	2030	1533.621092438336	0
0	2037	1540.948984574302	1
0	2041	1541.807412155018	0
0	2045	1545.36025972253	1
0	2046	1546.535662804991	0
0	2054	1551.717313785422	1
0	2059	1554.418438289967	0
0	2062	1554.49202225251	1
0	2063	1556.628199228601	0
0	2067	1564.297511454979	1
0	2071	1565.978906671658	0
0	2085	1571.271841147088	1
0	2089	1571.660156606032	0
0	2092	1571.784241263762	1
0	2096	1571.969997993763	0
0	2117	1590.948085309491	1
0	2118	1590.971456409356	0
0	2122	1595.561571452921	1
0	2124	1597.509636060973	0
0	2127	1608.02948473961	1
0	2131	1609.563491874276	0
0	2138	1615.317927438085	1
0	2150	1618.315063623339	0
0	2155	1620.266692744401	1
0	2159	1622.911737059874	0
0	2163	1634.254461288061	1
0	2164	1636.820934514206	0
0	2171	1645.176166043396	1
0	2172	1647.085279699765	0
0	2175	1647.974001609203	1
0	2176	1648.671431140191	0
0	2187	1659.728201607576	1
0	2195	1662.540965763614	0
0	2198	1668.673437135088	1
0	2199	1671.406346750773	0
0	2211	1688.163365747797	1
0	2212	1689.270153285555	0
0	2215	1691.935076734509	1
0	2216	1693.53541663509	0
0	2219	1696.751453023713	1
0	2224	1699.533192543712	0
0	2227	1701.735371413724	1
0	2228	1703.838363414839	0
0	2231	1705.434012802816	1
0	2232	1706.675462609545	0
0	2238	1713.72360080566	1
0	2239	1713.885990628363	0
0	2263	1734.045488352249	1
0	2266	1735.620468753714	0
0	2271	1745.024460344544	1
0	2272	1745.107459252774	0
0	2275	1746.304067780653	1
0	2276	1747.758281111581	0
0	2279	1752.252314494463	1
0	2283	1754.027126721205	0
0	2301	1788.065369928722	1
0	2302	1789.088907049996	0
0	2308	1790.141369328068	1
0	2309	1790.577588239411	0
0	2317	1794.143924286122	1
0	2318	1794.370335467666	0
0	2325	1797.108699924354	1
0	2335	1800.041908377279	0
0	2342	1805.468087911282	1
0	2343	1805.815010067002	0
0	2354	1809.785967657764	1
0	2362	1811.883957002339	0
0	2370	1823.085547398479	1
0	2374	1825.459013854233	0
0	2378	1830.59445488506	1
0	2380	1831.009331180709	0
0	2383	1833.120863793572	1
0	2384	1834.481291559113	0
0	2390	1845.21066670267	1
0	2391	1845.437839899096	0
0	2394	1854.930555603373	1
0	2395	1855.93265447056	0
0	2398	1859.596438684437	1
0	2399	1861.247416803973	0
0	2412	1874.095223445333	1
0	2413	1874.47489716664	0
0	2426	1878.172364784572	1
0	2428	1879.209814461322	0
0	2431	1879.741267745539	1
0	2432	1880.618820382872	0
0	2450	1893.258067571664	1
0	2457	1895.374981319266	0
0	2472	1907.723939360446	1
0	2473	1909.595732981084	0
0	2476	1910.011210413091	1
0	2477	1910.761140853328	0
0	2496	1922.676092295041	1
0	2503	1924.162184611446	0
0	2510	1927.217390370746	1
0	2512	1930.123884053946	0
0	2515	1930.562052636467	1
0	2516	1931.633979799016	0
0	2525	1938.093205670808	1
0	2531	1940.120163515434	0
0	2534	1943.914786088899	1
0	2535	1943.959549266342	0
0	2539	1946.359841081588	1
0	2540	1947.527038187491	0
0	2547	1957.578873247995	1
0	2548	1959.004191160999	0
0	2557	1963.208248154427	1
0	2558	1963.493530775045	0
0	2561	1964.153728240574	1
0	2570	1966.841704706542	0
0	2576	1968.324224726026	1
0	2577	1969.654911489781	0
0	2581	1970.265748838155	1
0	2586	1972.188357085864	0
0	2604	1980.160716297007	1
0	2606	1981.387018088674	0
0	2609	1983.609940460256	1
0	2612	1984.438275442012	0
0	2615	1985.360211773362	1
0	2616	1986.477235920949	0
0	2629	1997.377948766648	1
0	2630	1998.227247408172	0
0	2642	2004.672413278014	1
0	2643	2005.453025367932	0
0	2653	2011.74068571323	1
0	2657	2012.522153372421	0
0	2661	2015.153050135569	1
0	2662	2015.400577298211	0
0	2682	2034.098592541864	1
0	2683	2034.211510168449	0
0	2687	2037.529664403624	1
0	2694	2039.387359014072	0
0	2701	2040.641601992221	1
0	2702	2041.0627712526	0
0	2709	2043.328090158333	1
0	2713	2045.498349204426	0
0	2718	2050.962093670296	1
0	2719	2050.967162638334	0
0	2733	2057.971812103414	1
0	2734	2059.089226433697	0
0	2749	2071.501510382624	1
0	2751	2073.44050943484	0
0	2754	2076.326763929882	1
0	2755	2076.846590282013	0
0	2759	2078.351616850842	1
0	2763	2078.593988623232	0
0	2781	2092.227634422062	1
0	2785	2094.834576332681	0
0	2795	2106.033276439563	1
0	2796	2106.209191172484	0
0	2812	2116.354179079142	1
0	2817	2118.165333884539	0
0	2822	2120.48134976815	1
0	2823	2122.363955407742	0
0	2826	2122.621502616553	1
0	2830	2124.107265150802	0
0	2841	2129.346091017149	1
0	2843	2131.463962452504	0
0	2856	2136.204857777783	1
0	2863	2139.159130678333	0
0	2866	2139.360143542632	1
0	2868	2139.593826041341	0
0	2878	2149.281228161021	1
0	2886	2152.235079267179	0
0	2889	2157.348263962322	1
0	2890	2158.11988479468	0
0	2893	2159.94307829061	1
0	2894	2162.171079858911	0
0	2908	2171.661479592826	1
0	2911	2174.31113452904	0
0	2924	2185.008404274003	1
0	2926	2186.143270172235	0
0	2952	2209.196541794997	1
0	2953	2209.924144694508	0
0	2962	2214.727603782277	1
0	2963	2216.925598022804	0
0	2969	2218.522756578392	1
0	2970	2218.6555985908	0
0	2978	2226.543030078881	1
0	2982	2227.417149841733	0
0	2993	2234.424620729734	1
0	2994	2234.57897746345	0
0	2998	2238.794301364461	1
0	3005	2240.679757704635	0
0	3033	2262.239508691029	1
0	3035	2263.284706083067	0
0	3042	2277.308665094925	1
0	3046	2280.224789029619	0
0	3053	2281.897549149687	1
0	3054	2283.470289866802	0
0	3065	2296.487714847907	1
0	3067	2297.627906315449	0
0	3070	2302.451533212439	1
0	3071	2304.065288530157	0
0	3074	2307.608741147804	1
0	3078	2309.03206031727	0
0	3083	2315.30889639809	1
0	3084	2316.829126429165	0
0	3100	2336.115229650442	1
0	3101	2337.233915545283	0
0	3105	2339.08906816772	1
0	3106	2339.382139006257	0
0	3122	2352.765516101861	1
0	3123	2353.95654927639	0
0	3133	2364.481685098657	1
0	3137	2366.285611432155	0
0	3147	2374.954369991586	1
0	3148	2375.0943411011	0
0	3151	2379.021525533136	1
0	3155	2380.160260742023	0
0	3158	2380.223256560245	1
0	3159	2380.687212760635	0
0	3166	2390.187262899683	1
0	3167	2391.093011958736	0
0	3170	2391.504493856446	1
0	3174	2393.902874137921	0
0	3197	2404.620654954385	1
0	3198	2405.859911969735	0
0	3213	2419.833225079492	1
0	3218	2421.323927221842	0
0	3230	2431.995300599959	1
0	3231	2432.70559388442	0
0	3238	2438.393806998858	1
0	3245	2440.720580649567	0
0	3250	2441.569583895416	1
0	3257	2442.821083340273	0
0	3265	2446.307451905783	1
0	3266	2446.73237707134	0
0	3273	2451.896980136119	1
0	3280	2454.695473858964	0
0	3293	2461.1479138781	1
0	3297	2461.382384166349	0
0	3301	2463.719096998857	1
0	3312	2466.172805226059	0
0	3319	2468.918205474194	1
0	3322	2471.0144091322	0
0	3333	2475.178803562726	1
0	3337	2476.803338684031	0
0	3357	2493.334540227939	1
0	3358	2493.39126234117	0
0	3363	2504.313226583324	1
0	3364	2505.087282189199	0
0	3371	2519.640830552991	1
0	3375	2520.048979426732	0
0	3378	2521.359127645477	1
0	3379	2521.451641465667	0
0	3385	2523.006243081449	1
0	3386	2523.351519912693	0
0	3402	2538.361080456423	1
0	3403	2538.962559735094	0
0	3407	2541.426235498652	1
0	3408	2543.665626327094	0
0	3411	2555.069707054232	1
0	3412	2555.210590056029	0
0	3424	2562.361395748817	1
0	3426	2564.87279428951	0
0	3429	2567.217378948076	1
0	3439	2569.665435413771	0
0	3448	2575.996758869423	1
0	3456	2578.986732528129	0
0	3470	2592.432037496221	1
0	3471	2592.883064646274	0
0	3481	2602.043792292239	1
0	3486	2604.617897900583	0
0	3495	2609.22629176566	1
0	3496	2609.415118055117	0
0	3508	2622.112875201348	1
0	3509	2622.303606941488	0
0	3512	2623.720571587367	1
0	3514	2624.391894904156	0
0	3530	2642.544160967141	1
0	3531	2642.596252673973	0
0	3542	2653.187525440804	1
0	3547	2653.748954784852	0
0	3551	2657.354882477518	1
0	3555	2659.002160571853	0
0	3586	2700.044725862387	1
0	3588	2700.83126049735	0
0	3591	2703.628195692911	1
0	3592	2704.033046947505	0
0	3595	2710.688199997131	1
0	3596	2711.546473641368	0
0	3602	2718.564623653484	1
0	3606	2719.603630818034	0
0	3644	2756.097364641148	1
0	3645	2757.633723577644	0
0	3655	2761.248614357854	1
0	3658	2763.81002886236	0
0	3665	2772.641396854149	1
0	3670	2774.078811835658	0
0	3674	2779.40799822656	1
0	3675	2780.360352595885	0
0	3681	2783.354058634633	1
0	3685	2783.990141489685	0
0	3695	2788.024136476304	1
0	3696	2788.817898221065	0
0	3702	2793.344997584716	1
0	3705	2794.879644705736	0
0	3719	2802.906817041586	1
0	3721	2804.766392716661	0
0	3724	2805.009953569564	1
0	3727	2806.663477597392	0
0	3737	2808.942803685374	1
0	3738	2810.493387660858	0
0	3750	2823.054464598296	1
0	3753	2824.942257843386	0
0	3764	2831.60246186011	1
0	3766	2832.266006459908	0
0	3770	2840.174737903558	1
0	3775	2842.45766138208	0
0	3778	2843.865212330861	1
0	3783	2846.707418307754	0
0	3790	2854.509308460481	1
0	3791	2855.807080799687	0
0	3801	2868.414854678535	1
0	3805	2868.572044883632	0
0	3827	2898.883138486375	1
0	3828	2899.021470663446	0
0	3831	2902.575295039468	1
0	3832	2903.352385722631	0
0	3839	2908.08279860678	1
0	3843	2909.907761808149	0
0	3868	2922.994320835172	1
0	3872	2924.547965963692	0
0	3888	2929.386405146492	1
0	3889	2931.099538820306	0
0	3895	2939.062353397642	1
0	3896	2941.090473482912	0
0	3899	2945.834783769911	1
0	3900	2945.881746521285	0
0	3909	2956.425697253692	1
0	3911	2957.569512851636	0
0	3914	2958.800524537502	1
0	3916	2960.666319219636	0
0	3938	2982.320814212365	1
0	3946	2985.100581118977	0
0	3954	2989.626670809933	1
0	3955	2991.94712664006	0
0	3958	3000.784895742631	1
0	3959	3001.091343171347	0
0	3980	3016.661436945957	1
0	3985	3019.04232533827	0
0	3993	3026.201931815267	1
0	3994	3027.495139726226	0
0	3998	3029.901197996918	1
0	4000	3030.584920760442	0
0	4003	3031.016045261402	1
0	4004	3031.473783762096	0
0	4007	3031.992295412889	1
0	4011	3034.602595159997	0
0	4015	3040.150367053793	1
0	4016	3042.353834747332	0
0	4019	3042.383501837986	1
0	4024	3044.270635902792	0
0	4027	3046.630175518118	1
0	4028	3047.590616249495	0
0	4037	3051.994325395318	1
0	4038	3052.532294014136	0
0	4043	3059.731664787676	1
0	4044	3062.400314578315	0
0	4053	3076.478724854511	1
0	4057	3077.391215627473	0
0	4061	3083.581049849487	1
0	4070	3086.474827621182	0
0	4074	3087.432351908653	1
0	4075	3088.806876280301	0
0	4088	3097.805308091799	1
0	4094	3099.951441003234	0
0	4098	3103.991557125006	1
0	4099	3104.284813365802	0
0	4103	3105.458882356866	1
0	4104	3107.070044201325	0
0	4107	3108.882012359626	1
0	4108	3110.18113868578	0
0	4111	3111.147647812907	1
0	4112	3111.412759833486	0
0	4119	3122.75463643841	1
0	4120	3123.501283327613	0
0	4133	3137.253973343408	1
0	4135	3138.234372322086	0
0	4138	3138.508248320239	1
0	4139	3139.468411990433	0
0	4157	3154.629907164493	1
0	4158	3155.199469134717	0
0	4172	3164.281956077693	1
0	4177	3165.129925546581	0
0	4181	3167.39810201818	1
0	4182	3169.211644892507	0
0	4197	3175.456125269406	1
0	4201	3175.620943805656	0
0	4204	3177.799123636016	1
0	4205	3178.290370150846	0
0	4209	3180.24890170256	1
0	4210	3181.323914171193	0
0	4219	3187.906331183202	1
0	4220	3188.24436311885	0
0	4223	3189.250595088328	1
0	4227	3189.605020500001	0
0	4234	3193.189940864007	1
0	4244	3195.543438882085	0
0	4248	3196.685412461234	1
0	4249	3197.604926229821	0
0	4260	3206.730344939649	1
0	4264	3209.417836902069	0
0	4269	3218.120157599958	1
0	4273	3219.21026333116	0
0	4277	3222.348585609855	1
0	4284	3223.256365738169	0
0	4291	3226.640278328197	1
0	4292	3226.929979585415	0
0	4302	3232.528816172864	1
0	4304	3234.520415836847	0
0	4307	3235.872649181861	1
0	4308	3235.938766180822	0
0	4314	3248.655944917637	1
0	4321	3250.833036857142	0
0	4324	3250.914144269528	1
0	4325	3252.088532633229	0
0	4343	3269.347135459972	1
0	4347	3272.244336031259	0
0	4355	3287.268687429718	1
0	4356	3288.009231582416	0
0	4359	3294.656620237936	1
0	4364	3296.584722628509	0
0	4367	3298.009072700558	1
0	4368	3298.602425989256	0
0	4374	3303.329045989593	1
0	4375	3305.206257469714	0
0	4378	3308.369893189837	1
0	4380	3310.297858772634	0
0	4389	3317.112662691821	1
0	4390	3318.018918396672	0
0	4393	3318.331901292063	1
0	4397	3319.575709783461	0
0	4401	3323.114466377648	1
0	4402	3325.182265473233	0
0	4411	3333.32669107153	1
0	4412	3333.51565716811	0
0	4423	3349.256257179029	1
0	4424	3350.71654382246	0
0	4434	3356.459109361928	1
0	4435	3357.125752403842	0
0	4438	3361.389169067546	1
0	4442	3362.141140108445	0
0	4446	3363.529179647583	1
0	4448	3363.62036080158	0
0	4469	3382.95019266656	1
0	4472	3385.146659176694	0
0	4475	3389.490254008027	1
0	4476	3390.188494503907	0
0	4479	3395.853717378564	1
0	4480	3398.381242313594	0
0	4483	3398.747216663844	1
0	4484	3398.863125452648	0
0	4502	3416.109916903715	1
0	4503	3419.106005767022	0
0	4507	3422.272074355306	1
0	4508	3422.335493681067	0
0	4528	3441.063689820864	1
0	4534	3444.046031815871	0
0	4542	3452.578970215659	1
0	4543	3453.301823019119	0
0	4555	3469.26138396015	1
0	4556	3469.287652031976	0
0	4559	3469.39316566253	1
0	4560	3469.945972466818	0
0	4566	3477.332446461117	1
0	4576	3479.376133417094	0
0	4606	3501.601236156112	1
0	4611	3503.028068100994	0
0	4615	3504.729232365218	1
0	4616	3507.476767773861	0
0	4635	3523.728720412955	1
0	4636	3525.901359461069	0
0	4639	3526.337566495466	1
0	4647	3527.759514315926	0
0	4650	3530.580771696846	1
0	4651	3531.665569574397	0
0	4654	3531.807524284586	1
0	4655	3533.225446583745	0
0	4661	3536.495107601764	1
0	4666	3537.932649129522	0
0	4678	3548.912716895601	1
0	4683	3550.431323678567	0
0	4693	3557.918290275968	1
0	4702	3560.310528272049	0
0	4706	3560.479829218828	1
0	4707	3561.68187058368	0
0	4717	3570.171564602586	1
0	4719	3573.160444031409	0
0	4722	3574.211446468195	1
0	4726	3576.056933573823	0
0	4733	3583.396256394314	1
0	4734	3583.692073299082	0
0	4741	3590.513798911307	1
0	4742	3591.403989173905	0
0	4745	3592.772107867424	1
0	4747	3594.023375891711	0
0	4751	3594.992864441669	1
0	4752	3596.000963044705	0
0	4755	3596.082005904851	1
0	4759	3597.286711747322	0
0	4763	3615.829218807148	1
0	4767	3616.938365421427	0
0	4770	3617.187671981412	1
0	4772	3617.956449398803	0
0	4778	3621.82469445913	1
0	4780	3624.191401216262	0
0	4786	3626.391899541961	1
0	4790	3626.526843701048	0
0	4795	3638.073443108692	1
0	4796	3638.661285473358	0
0	4816	3658.116787356905	1
0	4817	3658.53657410334	0
0	4820	3658.787584531909	1
0	4824	3659.707717564969	0
0	4834	3669.58622630393	1
0	4838	3670.749833035358	0
0	4862	3685.659654236208	1
0	4864	3686.019737076596	0
0	4867	3687.827460948814	1
0	4871	3689.643211588036	0
0	4882	3700.635501442705	1
0	4887	3703.492857507424	0
0	4893	3706.256426530013	1
0	4894	3706.787237698309	0
0	4902	3719.521087653011	1
0	4903	3719.664471547924	0
0	4909	3721.263975835794	1
0	4913	3721.615919931063	0
0	4919	3724.779670230609	1
0	4923	3727.136759085517	0
0	4929	3731.893313894728	1
0	4930	3732.764090735294	0
0	4934	3737.066489551133	1
0	4935	3739.680395601896	0
0	4938	3740.295660929386	1
0	4939	3741.42766845227	0
0	4945	3743.360795480654	1
0	4950	3746.18176710141	0
0	4955	3765.176067232367	1
0	4956	3767.76533440704	0
0	4959	3777.70239804505	1
0	4964	3780.659055938643	0
0	4967	3780.786894506347	1
0	4968	3782.780478603669	0
0	4975	3792.945164758586	1
0	4976	3795.053634107149	0
0	4979	3795.990041633695	1
0	4980	3797.035906313542	0
0	4983	3799.334642195906	1
0	4984	3799.577778840116	0
0	4990	3805.296034764674	1
0	4991	3808.272576823087	0
0	5002	3825.6204645505	1
0	5003	3826.803713753375	0
0	5027	3845.786532261097	1
0	5031	3847.616917450258	0
0	5040	3850.807948026262	1
0	5051	3852.559157075571	0
0	5058	3854.751706159563	1
0	5059	3855.147017333313	0
0	5063	3856.966116387208	1
0	5065	3859.737926579465	0
0	5076	3868.154581384928	1
0	5078	3870.217206602769	0
0	5083	3877.718233901748	1
0	5084	3878.007126555933	0
0	5096	3881.315448116036	1
0	5097	3882.382961614748	0
0	5103	3886.614925915982	1
0	5108	3889.128360654879	0
0	5111	3894.883565148415	1
0	5112	3895.31313103293	0
0	5115	3898.987727212541	1
0	5116	3900.771680856237	0
0	5119	3907.467299124235	1
0	5120	3908.582798155461	0
0	5123	3913.121892966849	1
0	5127	3913.539364355914	0
0	5139	3936.542851646703	1
0	5140	3938.85425269796	0
0	5150	3949.300793027253	1
0	5161	3952.268996885794	0
0	5167	3956.273791365691	1
0	5168	3957.398684211368	0
0	5171	3959.738714966396	1
0	5175	3960.894934181372	0
0	5178	3963.575401598677	1
0	5179	3963.971639438573	0
0	5192	3976.722908747467	1
0	5196	3978.238915106065	0
0	5199	3979.072741488838	1
0	5203	3981.281273332438	0
0	5210	3984.579288619029	1
0	5211	3985.151100542882	0
0	5223	3987.714803772213	1
0	5224	3988.278317875082	0
0	5241	4013.177840832455	1
0	5245	4014.152815424497	0
0	5254	4018.326781197693	1
0	5255	4018.556191155774	0
0	5266	4024.249614538435	1
0	5267	4024.609221550337	0
0	5275	4035.980036847396	1
0	5276	4037.031210165946	0
0	5294	4054.165531076754	1
0	5302	4056.609486416007	0
0	5309	4059.311317025928	1
0	5319	4062.29428404859	0
0	5335	4068.384343313808	1
0	5336	4069.355599676418	0
0	5342	4074.213944982788	1
0	5344	4075.728019688042	0
0	5353	4082.555790722244	1
0	5354	4082.655656937012	0
0	5363	4085.591607650388	1
0	5367	4087.636506952626	0
0	5374	4091.555924444983	1
0	5376	4094.136962089105	0
0	5387	4097.969771900979	1
0	5389	4099.140735881858	0
0	5409	4120.923380032915	1
0	5413	4122.552619729147	0
0	5416	4124.408019460002	1
0	5417	4124.427023904949	0
0	5421	4125.548376554017	1
0	5425	4126.028499138735	0
0	5428	4131.274549679661	1
0	5429	4132.788854213826	0
0	5437	4137.31800420869	1
0	5438	4138.617395936392	0
0	5460	4147.348848548895	1
0	5461	4147.515078970544	0
0	5473	4153.238206252238	1
0	5477	4155.587232038637	0
0	5484	4158.572587298087	1
0	5486	4159.546639635288	0
0	5507	4178.20884675853	1
0	5508	4180.778548492099	0
0	5511	4184.811297381627	1
0	5515	4186.423243934812	0
0	5518	4188.576627077684	1
0	5519	4188.89580134549	0
0	5523	4194.632618357466	1
0	5524	4194.648206928048	0
0	5533	4201.38300408531	1
0	5534	4203.600351360292	0
0	5545	4213.537691840408	1
0	5546	4214.905376180603	0
0	5554	4225.298154953903	1
0	5555	4225.941682735538	0
0	5559	4230.071761743932	1
0	5560	4230.570543365479	0
0	5563	4231.434624475117	1
0	5564	4232.678752035563	0
0	5567	4245.947386822301	1
0	5577	4248.151194593539	0
0	5581	4253.614482514461	1
0	5582	4254.598611967314	0
0	5591	4260.222687162859	1
0	5592	4261.291299712753	0
0	5595	4265.772954822472	1
0	5596	4267.462302425948	0
0	5599	4269.597509180122	1
0	5600	4270.721403691087	0
0	5603	4270.998968859503	1
0	5604	4271.743526700807	0
0	5607	4274.009542023199	1
0	5608	4274.660962941636	0
0	5611	4274.765961052497	1
0	5618	4276.479430029906	0
0	5624	4278.699052104297	1
0	5635	4280.657887887375	0
0	5638	4280.755117029997	1
0	5655	4283.691105188935	0
0	5662	4284.794215814024	1
0	5667	4286.915153412246	0
0	5677	4292.753102779698	1
0	5685	4294.272105733345	0
0	5698	4307.633025680842	1
0	5699	4309.522997862059	0
0	5702	4314.120240509017	1
0	5707	4316.716108200913	0
0	5720	4325.154723859975	1
0	5721	4328.122943800895	0
0	5725	4328.898778553824	1
0	5730	4331.889217697966	0
0	5741	4335.602299516623	1
0	5742	4336.147467044942	0
0	5753	4341.673731479266	1
0	5755	4342.380633374471	0
0	5758	4343.317468792372	1
0	5759	4343.987961327025	0
0	5762	4347.488636774052	1
0	5767	4350.325453609591	0
0	5774	4357.348343581056	1
0	5778	4358.222655130883	0
0	5804	4383.0788344069	1
0	5806	4385.485456206021	0
0	5819	4400.352233428795	1
0	5820	4400.703310084536	0
0	5843	4423.087865250299	1
0	5845	4423.546575832596	0
0	5849	4424.504551496231	1
0	5853	4425.585799656819	0
0	5863	4430.055426792572	1
0	5869	4431.504776723313	0
0	5906	4449.931266381179	1
0	5911	4450.924231256878	0
0	5929	4464.628975032973	1
0	5930	4465.033477671464	0
0	5933	4468.750132827034	1
0	5937	4469.072874144855	0
0	5941	4471.578792107166	1
0	5945	4474.470028756907	0
0	5952	4477.611360390155	1
0	5953	4477.656256885477	0
0	5956	4478.170709292727	1
0	5957	4478.224133392673	0
0	5964	4481.903871423864	1
0	5965	4482.3489012089	0
0	5975	4499.603495583403	1
0	5976	4502.403126618903	0
0	5979	4503.418325590361	1
0	5983	4506.315907726466	0
0	5987	4516.41114208111	1
0	5991	4517.888001188577	0
0	6010	4533.494187221299	1
0	6011	4534.215494449836	0
0	6029	4555.211033835572	1
0	6034	4557.197531480386	0
0	6039	4559.986098994089	1
0	6040	4561.389248817738	0
0	6049	4567.778175788436	1
0	6060	4570.48956823838	0
0	6063	4570.597022954765	1
0	6065	4573.134434361767	0
0	6071	4582.122771865159	1
0	6075	4584.566450835312	0
0	6083	4591.712729715345	1
0	6084	4592.763568329917	0
0	6096	4599.772730869942	1
0	6097	4601.514958851245	0
0	6100	4603.078016621888	1
0	6104	4604.308159936331	0
0	6114	4613.229490241479	1
0	6116	4614.008757402153	0
0	6119	4617.700237501516	1
0	6120	4618.420475834501	0
0	6123	4626.402964625068	1
0	6124	4626.47392728545	0
0	6134	4649.311966425506	1
0	6135	4650.143499344697	0
0	6143	4657.50160848453	1
0	6144	4657.514357400907	0
0	6150	4667.860722094856	1
0	6151	4667.931234764533	0
0	6158	4676.039735027778	1
0	6160	4677.266751744717	0
0	6172	4683.371049245229	1
0	6173	4683.697858075763	0
0	6181	4688.551716347948	1
0	6185	4690.280384983906	0
0	6191	4693.214626018424	1
0	6192	4693.998048363538	0
0	6201	4705.776012546935	1
0	6203	4706.767013127415	0
0	6206	4707.754520947134	1
0	6207	4708.5302324006	0
0	6210	4709.564957324422	1
0	6215	4711.506669766067	0
0	6219	4712.255462682547	1
0	6223	4713.20282572472	0
0	6226	4717.46339341626	1
0	6230	4720.09002145742	0
0	6233	4725.341789279899	1
0	6234	4726.723316090126	0
0	6240	4727.518793823286	1
0	6242	4730.130940570008	0
0	6253	4741.32787575901	1
0	6254	4741.836788273709	0
0	6258	4746.879632698768	1
0	6263	4748.810293669663	0
0	6269	4756.131724915879	1
0	6274	4758.813326593217	0
0	6281	4768.084006294841	1
0	6282	4770.434752659828	0
0	6287	4772.655017135862	1
0	6291	4774.311703060049	0
0	6294	4774.5943408521	1
0	6301	4776.114878151268	0
0	6304	4776.599526532801	1
0	6306	4778.051509162439	0
0	6309	4778.166814262844	1
0	6314	4780.68774627943	0
0	6322	4787.332977491156	1
0	6330	4790.169415180314	0
0	6338	4793.603976745894	1
0	6339	4795.608431729634	0
0	6343	4801.818046631714	1
0	6344	4801.976514466614	0
0	6350	4806.631848702235	1
0	6351	4806.955662420641	0
0	6355	4817.80647182451	1
0	6356	4819.370788381759	0
0	6359	4820.638895580709	1
0	6360	4822.128313413569	0
0	6369	4830.228281527005	1
0	6370	4831.97811752161	0
0	6375	4838.271266796247	1
0	6376	4838.732976594457	0
0	6389	4844.091520123161	1
0	6390	4844.467643269907	0
0	6396	4846.148135568665	1
0	6404	4848.141435539328	0
0	6407	4849.355565360221	1
0	6408	4850.374626160238	0
0	6421	4862.342539453911	1
0	6423	4863.760945577151	0
0	6434	4872.400148283618	1
0	6439	4875.354159305103	0
0	6450	4890.394117103583	1
0	6452	4892.029634656616	0
0	6455	4892.218211980874	1
0	6459	4895.205865569903	0
0	6469	4906.289421341766	1
0	6470	4908.761504467888	0
0	6475	4910.698021289374	1
0	6476	4911.993207594448	0
0	6479	4912.098637821761	1
0	6480	4912.338688143762	0
0	6483	4913.425451388784	1
0	6484	4913.494767230638	0
0	6487	4916.735427296884	1
0	6488	4918.212038053701	0
0	6491	4919.651356476117	1
0	6495	4922.346830092288	0
0	6501	4922.770804354535	1
0	6503	4924.512585032647	0
0	6506	4928.994761501729	1
0	6516	4931.095331728542	0
0	6519	4931.120088089381	1
0	6520	4932.080349701035	0
0	6526	4932.892459596831	1
0	6528	4934.984852952896	0
0	6535	4937.275158736245	1
0	6538	4938.056075847599	0
0	6549	4946.638569574199	1
0	6550	4947.578880674698	0
0	6558	4952.284127059857	1
0	6569	4955.056842371918	0
0	6572	4955.312961230639	1
0	6573	4955.480542447953	0
0	6583	4957.372018632436	1
0	6587	4958.661324742358	0
0	6590	4958.993491898178	1
0	6597	4961.757367849418	0
0	6603	4968.360439039561	1
0	6611	4970.685894593453	0
0	6619	4977.993902562386	1
0	6620	4978.290820700849	0
0	6623	4981.753136844382	1
0	6624	4983.10037935022	0
0	6630	4987.138323632889	1
0	6634	4987.991139586266	0
0	6637	4988.914614253339	1
0	6638	4991.374767942652	0
0	6654	4999.23882880412	1
0	6655	5000.144235946254	0
0	6659	5003.143455129472	1
0	6660	5004.074745902787	0
0	6666	5011.969248884025	1
0	6667	5012.778590441551	0
0	6677	5019.486860883334	1
0	6678	5020.219771007767	0
0	6689	5029.012662791057	1
0	6697	5030.029082102648	0
0	6705	5032.638601148064	1
0	6706	5035.439839037005	0
0	6709	5036.859392783893	1
0	6710	5038.931145141316	0
0	6719	5042.348578943543	1
0	6720	5043.229346627854	0
0	6727	5044.74846658976	1
0	6730	5046.844567773302	0
0	6738	5050.314122820724	1
0	6739	5051.832369887839	0
0	6763	5072.103287674262	1
0	6764	5074.884487798924	0
0	6774	5085.43957682964	1
0	6775	5085.479626241216	0
0	6778	5087.02108319873	1
0	6780	5087.807075862059	0
0	6794	5095.883913510574	1
0	6799	5097.645529116334	0
0	6824	5128.89692003253	1
0	6825	5129.56315606851	0
0	6830	5132.354153090661	1
0	6831	5132.665293627161	0
0	6838	5140.016917675215	1
0	6839	5140.070595892826	0
0	6858	5160.52669565955	1
0	6859	5160.532609512532	0
0	6862	5160.980266938882	1
0	6867	5161.803018211618	0
0	6898	5186.449739595946	1
0	6899	5189.243148581457	0
0	6908	5191.581631956151	1
0	6909	5191.909852701579	0
0	6917	5196.27631214709	1
0	6918	5198.095717660495	0
0	6932	5210.182977886655	1
0	6940	5212.834269627734	0
0	6946	5217.950927619064	1
0	6947	5218.28558108224	0
0	6958	5227.319908820072	1
0	6959	5227.643751320397	0
0	6962	5234.196657697604	1
0	6963	5234.468909826859	0
0	6966	5235.53135310456	1
0	6967	5236.132576903355	0
0	6970	5236.146961559546	1
0	6971	5237.259527449307	0
0	6977	5242.131351445268	1
0	6981	5244.878773655476	0
0	6984	5245.971777855496	1
0	6985	5246.540471434681	0
0	6989	5250.947558016213	1
0	6990	5251.482180740413	0
0	7000	5254.550594995679	1
0	7002	5254.79650714525	0
0	7010	5261.027939086409	1
0	7014	5262.702673237802	0
0	7017	5263.283796005873	1
0	7018	5263.598690327115	0
0	7031	5283.214381226712	1
0	7032	5284.488866488616	0
0	7038	5287.303141434534	1
0	7039	5287.727922587122	0
0	7042	5291.204008860631	1
0	7051	5293.582754116165	0
0	7055	5295.069744789955	1
0	7056	5295.089000905678	0
0	7065	5303.601931289261	1
0	7071	5305.682382779801	0
0	7099	5335.609838815147	1
0	7100	5335.754361777679	0
0	7103	5341.935841260803	1
0	7107	5342.393940910155	0
0	7111	5360.292276804483	1
0	7112	5360.357776403571	0
0	7115	5366.320802654585	1
0	7120	5368.479769846842	0
0	7123	5369.419775245882	1
0	7128	5370.721439606378	0
0	7131	5371.557636391707	1
0	7135	5374.402412256027	0
0	7138	5374.522712350287	1
0	7142	5376.932829942016	0
0	7156	5382.846294987522	1
0	7161	5385.500016128487	0
0	7192	5412.42699162806	1
0	7193	5414.619150971265	0
0	7197	5419.011292774415	1
0	7198	5420.307852725761	0
0	7203	5424.006756956547	1
0	7204	5425.415380778529	0
0	7207	5427.591541356664	1
0	7211	5430.456745878798	0
0	7217	5431.455447509875	1
0	7218	5431.677999066251	0
0	7228	5435.131976928957	1
0	7229	5435.144789196132	0
0	7236	5442.045417795593	1
0	7237	5442.38060171312	0
0	7242	5449.568584801373	1
0	7244	5451.929520567491	0
0	7257	5463.519921757549	1
0	7258	5463.820597025421	0
0	7271	5471.570804904131	1
0	7272	5471.728759161513	0
0	7286	5483.151344232167	1
0	7287	5483.162841607612	0
0	7291	5483.327020777135	1
0	7292	5484.322133070517	0
0	7295	5485.390645091583	1
0	7296	5486.848238789594	0
0	7302	5497.47477942515	1
0	7309	5499.479172196929	0
0	7332	5516.711131587815	1
0	7337	5518.905553942124	0
0	7343	5531.430239232217	1
0	7344	5532.649701225153	0
0	7359	5548.07062881001	1
0	7360	5549.335699611388	0
0	7363	5551.283493949131	1
0	7364	5552.100704861383	0
0	7367	5553.744896652888	1
0	7371	5556.034185838273	0
0	7378	5560.415632492034	1
0	7382	5561.182677906981	0
0	7390	5567.845743784512	1
0	7391	5568.215589278073	0
0	7397	5573.131555128896	1
0	7400	5575.172512960645	0
0	7403	5578.392547180897	1
0	7404	5581.371550126368	0
0	7426	5601.595758603285	1
0	7427	5604.226223480633	0
0	7430	5605.651299173981	1
0	7431	5605.678929508901	0
0	7434	5606.384669851773	1
0	7439	5607.9506404665	0
0	7443	5614.20390507501	1
0	7444	5614.577587644837	0
0	7450	5617.43754057709	1
0	7458	5620.145134394613	0
0	7464	5624.11352897434	1
0	7466	5625.834113501832	0
0	7469	5626.749015445834	1
0	7474	5629.296431080263	0
0	7478	5632.925264204769	1
0	7480	5635.808715132908	0
0	7486	5638.938940610855	1
0	7491	5641.386083272599	0
0	7494	5648.079006614144	1
0	7498	5649.353996129448	0
0	7503	5663.455963089366	1
0	7504	5664.254928254589	0
0	7510	5665.197883994822	1
0	7511	5665.210838199923	0
0	7521	5672.853675832518	1
0	7522	5673.628805278139	0
0	7529	5679.601280994397	1
0	7531	5680.035625022206	0
0	7537	5681.097034862559	1
0	7542	5683.644655628821	0
0	7552	5691.048939540696	1
0	7553	5692.112899487935	0
0	7559	5702.434036541863	1
0	7560	5703.482746908921	0
0	7566	5705.652895017753	1
0	7567	5707.732188933914	0
0	7570	5709.457110789318	1
0	7575	5711.171661362698	0
0	7578	5712.180295178961	1
0	7579	5713.402715183473	0
0	7586	5717.576043024815	1
0	7587	5717.660327399051	0
0	7591	5722.323064975682	1
0	7592	5724.778975982912	0
0	7595	5727.388498459755	1
0	7596	5729.931464541237	0
0	7599	5731.061647567701	1
0	7603	5732.631076498116	0
0	7615	5754.896078548994	1
0	7620	5756.711317660011	0
0	7626	5763.123839544216	1
0	7627	5763.951775273938	0
0	7631	5766.745053026923	1
0	7639	5769.508112671852	0
0	7642	5770.354955918886	1
0	7643	5770.95899846633	0
0	7646	5771.051872011332	1
0	7651	5773.750133547405	0
0	7658	5778.510098441372	1
0	7659	5781.086416158898	0
0	7666	5788.480391090316	1
0	7667	5790.416255625235	0
0	7678	5799.920063982931	1
0	7685	5801.642019126991	0
0	7710	5819.744967077181	1
0	7711	5819.94766424044	0
0	7717	5821.321004610913	1
0	7718	5821.68565107893	0
0	7730	5835.389730336793	1
0	7732	5837.172432575719	0
0	7737	5839.315815815995	1
0	7747	5841.463329965647	0
0	7774	5870.380068054079	1
0	7776	5871.864647719171	0
0	7779	5878.778636359472	1
0	7784	5881.737324123197	0
0	7790	5884.029882193051	1
0	7791	5884.588643485951	0
0	7795	5909.712936970986	1
0	7796	5911.175282848911	0
0	7799	5914.391590816157	1
0	7803	5915.916921664706	0
0	7807	5916.939135756659	1
0	7811	5919.463796636027	0
0	7822	5925.795424375365	1
0	7827	5927.708546965179	0
0	7842	5944.067673105314	1
0	7846	5944.838053963688	0
0	7850	5949.005193844897	1
0	7854	5949.499327164241	0
0	7861	5957.040693776356	1
0	7862	5957.567709783927	0
0	7865	5959.498007406514	1
0	7866	5960.849633330221	0
0	7869	5962.179083081743	1
0	7870	5963.458229540791	0
0	7875	5969.843725450964	1
0	7876	5972.282559846555	0
0	7879	5973.456088931309	1
0	7883	5975.674570447107	0
0	7886	5976.833290320718	1
0	7887	5977.598809801584	0
0	7898	5991.408395505265	1
0	7899	5991.80374075772	0
0	7902	5993.120263779272	1
0	7910	5995.45004691446	0
0	7923	6001.612450817849	1
0	7933	6003.764284057681	0
0	7944	6011.551838951047	1
0	7945	6013.624999376487	0
0	7958	6019.910171199292	1
0	7965	6021.347185300411	0
0	7968	6022.765975961843	1
0	7973	6024.633649600371	0
0	7984	6033.991444356964	1
0	7985	6035.963826909898	0
0	7996	6046.890072546124	1
0	7997	6047.053698938433	0
0	8002	6049.586016410213	1
0	8003	6051.557232729668	0
0	8013	6058.572030054171	1
0	8014	6058.9962635761	0
0	8023	6068.523799926139	1
0	8024	6071.263340998445	0
0	8030	6074.592246256222	1
0	8034	6075.407911871485	0
0	8043	6083.636607815194	1
0	8047	6084.820060439523	0
0	8050	6086.429389662553	1
0	8051	6086.641188233482	0
0	8057	6086.892236983634	1
0	8065	6088.834014546046	0
0	8084	6103.815259985508	1
0	8089	6105.261676587076	0
0	8102	6116.008185545475	1
0	8103	6116.908143443886	0
0	8109	6117.9371602615	1
0	8115	6120.111456286279	0
0	8122	6123.189329239859	1
0	8127	6123.913262418226	0
0	8130	6125.349945826134	1
0	8131	6126.424684476213	0
0	8138	6144.870106036105	1
0	8139	6146.914940702291	0
0	8146	6152.133977559894	1
0	8147	6152.402632274816	0
0	8175	6172.438813037443	1
0	8176	6173.319655992699	0
0	8179	6175.500620491406	1
0	8183	6178.331921013162	0
0	8202	6203.814262042323	1
0	8203	6203.89187898817	0
0	8206	6207.14718208141	1
0	8211	6209.954923647858	0
0	8214	6215.43900843284	1
0	8221	6217.0382198377	0
0	8230	6233.689638725597	1
0	8234	6235.147616864108	0
0	8237	6235.399054248377	1
0	8238	6235.841183417743	0
0	8241	6237.31194940614	1
0	8242	6237.573220209932	0
0	8245	6238.185814856324	1
0	8253	6241.109084027313	0
0	8258	6247.263222676831	1
0	8259	6247.59041567353	0
0	8263	6250.365736393135	1
0	8264	6250.698606821428	0
0	8267	6260.416531710254	1
0	8271	6263.154480202879	0
0	8278	6266.89152369896	1
0	8282	6268.599655331206	0
0	8295	6277.706995709183	1
0	8300	6280.311254865664	0
0	8316	6289.56569849925	1
0	8321	6290.521488141251	0
0	8325	6292.326844978598	1
0	8329	6294.608016574262	0
0	8332	6295.277885154813	1
0	8335	6297.470114723403	0
0	8338	6298.234055888465	1
0	8343	6299.602366926478	0
0	8372	6318.709418468031	1
0	8379	6320.823960375116	0
0	8385	6323.118460024902	1
0	8388	6325.744145418885	0
0	8392	6333.559754285996	1
0	8408	6336.410819003587	0
0	8419	6345.639337919797	1
0	8425	6347.141870838832	0
0	8462	6372.561449701693	1
0	8463	6372.622211472856	0
0	8466	6376.328756287091	1
0	8467	6377.790146307837	0
0	8477	6381.036798690267	1
0	8479	6382.583322669013	0
0	8489	6387.107024595481	1
0	8490	6387.385188937222	0
0	8496	6390.592499489157	1
0	8497	6391.291745574678	0
0	8528	6403.374368267743	1
0	8529	6404.801396463042	0
0	8539	6420.532370859542	1
0	8540	6422.280715499046	0
0	8549	6432.641944398601	1
0	8560	6434.515582517634	0
0	8574	6449.066883538106	1
0	8575	6449.479607537906	0
0	8578	6450.045425930676	1
0	8582	6451.182318657482	0
0	8604	6463.868362256629	1
0	8605	6464.241037862052	0
0	8613	6469.072550801123	1
0	8615	6471.599432958179	0
0	8622	6482.633677430036	1
0	8623	6482.931427190854	0
0	8637	6492.476343497644	1
0	8639	6493.49581000721	0
0	8642	6493.99843146587	1
0	8646	6495.655831200953	0
0	8653	6502.129887848931	1
0	8661	6504.814757792021	0
0	8667	6513.687956778101	1
0	8668	6514.299377130769	0
0	8675	6538.133048067932	1
0	8676	6539.420436751227	0
0	8690	6550.941864257442	1
0	8691	6552.310406602705	0
0	8697	6556.059866581453	1
0	8698	6556.764319527253	0
0	8703	6563.824267580564	1
0	8704	6566.222172077784	0
0	8707	6571.159630105664	1
0	8711	6572.042407457804	0
0	8734	6591.946733520894	1
0	8735	6593.176218151574	0
0	8738	6596.165014072093	1
0	8743	6598.285801793664	0
0	8750	6603.162274700597	1
0	8757	6605.812741564523	0
0	8769	6611.186562430887	1
0	8770	6611.491564827879	0
0	8774	6614.841500759378	1
0	8776	6616.609562794169	0
0	8796	6641.393978225157	1
0	8801	6642.925425425185	0
0	8817	6657.19223176886	1
0	8818	6657.228961195621	0
0	8821	6657.728028898053	1
0	8823	6660.578143914332	0
0	8827	6663.011369528932	1
0	8828	6665.00076014199	0
0	8831	6669.294171871569	1
0	8832	6672.141217563404	0
0	8838	6686.372920782946	1
0	8839	6687.360352234865	0
0	8861	6712.814084755228	1
0	8862	6713.077951710249	0
0	8875	6720.293235190971	1
0	8880	6722.2815956213	0
0	8890	6729.402041342478	1
0	8891	6730.058024943599	0
0	8894	6730.104212481351	1
0	8895	6730.545595771321	0
0	8901	6732.844275676112	1
0	8902	6733.129898281852	0
0	8905	6733.380522836432	1
0	8906	6736.282715232186	0
0	8913	6738.201758564652	1
0	8914	6738.879343708101	0
0	8928	6745.282030243309	1
0	8929	6745.46570452754	0
0	8934	6756.753206964317	1
0	8942	6758.088396186124	0
0	8953	6770.945963237683	1
0	8954	6771.006815850326	0
0	8962	6774.459669364788	1
0	8963	6776.266999011288	0
0	8970	6792.741371766035	1
0	8971	6792.849410413334	0
0	8981	6806.740530225601	1
0	8990	6809.622624015817	0
0	8993	6810.754945100369	1
0	8998	6812.491229960937	0
0	9005	6830.977297603164	1
0	9006	6832.106261417442	0
0	9031	6857.5815753335	1
0	9034	6859.115136326482	0
0	9041	6861.887137376769	1
0	9042	6863.708429054186	0
0	9049	6866.124146715061	1
0	9053	6868.447472842017	0
0	9057	6877.098550442542	1
0	9063	6878.500083803061	0
0	9077	6891.186008389506	1
0	9078	6891.905248062499	0
0	9081	6892.17510394931	1
0	9082	6892.548437318472	0
0	9085	6893.065344306684	1
0	9087	6895.843831962845	0
0	9106	6911.180159320344	1
0	9108	6911.870153197725	0
0	9116	6916.10147469406	1
0	9121	6917.948052520576	0
0	9138	6931.929648792874	1
0	9142	6934.879650960649	0
0	9149	6938.629489825488	1
0	9157	6940.38149244233	0
0	9163	6941.617745830629	1
0	9166	6942.320078327492	0
0	9188	6951.28214040854	1
0	9192	6952.433751194958	0
0	9195	6954.958859414355	1
0	9196	6955.777226380646	0
0	9205	6960.792993016311	1
0	9206	6961.559785524598	0
0	9222	6969.158968063167	1
0	9226	6970.490324006152	0
0	9232	6975.205253815344	1
0	9233	6976.177298731936	0
0	9242	6992.622423223886	1
0	9243	6995.102922141698	0
0	9250	6998.427104316108	1
0	9251	7000.359570295122	0
0	9268	7023.792022036813	1
0	9270	7025.739878872654	0
0	9282	7031.165230465818	1
0	9284	7033.955385351299	0
0	9287	7038.019237882689	1
0	9288	7038.152087384894	0
0	9291	7038.52796780287	1
0	9295	7039.051663382797	0
0	9298	7040.573220271524	1
0	9299	7041.184256248699	0
0	9306	7049.985731624691	1
0	9322	7052.323023005999	0
0	9350	7072.501534692971	1
0	9351	7073.645020399075	0
0	9355	7080.211185361022	1
0	9356	7080.672714127565	0
0	9359	7081.061348911541	1
0	9360	7081.967290493243	0
0	9363	7082.127748711885	1
0	9364	7083.467653408581	0
0	9367	7084.168978269499	1
0	9371	7085.949691110167	0
0	9377	7088.137839059331	1
0	9379	7089.244761441831	0
0	9383	7091.016533994876	1
0	9384	7093.0941342903	0
0	9387	7093.677832822136	1
0	9388	7093.806864680929	0
0	9410	7126.877701177825	1
0	9411	7128.88301332615	0
0	9420	7133.271148729458	1
0	9423	7134.273226647576	0
0	9427	7141.952068644121	1
0	9428	7144.749019382942	0
0	9444	7155.081008312083	1
0	9447	7157.982239578488	0
0	9458	7170.932936489289	1
0	9459	7172.053203119743	0
0	9463	7177.976931697139	1
0	9467	7180.458399535656	0
0	9477	7190.505978617537	1
0	9478	7190.767153098391	0
0	9481	7191.880086750596	1
0	9482	7193.699260569026	0
0	9506	7218.382981108021	1
0	9508	7220.384209080821	0
0	9529	7245.134310437359	1
0	9530	7245.527886500929	0
0	9545	7255.70743150066	1
0	9549	7256.766220588267	0
0	9556	7260.266852980892	1
0	9561	7263.056815614453	0
0	9565	7266.085237008041	1
0	9567	7266.754718489528	0
0	9571	7269.395070522475	1
0	9572	7271.505628952597	0
0	9578	7272.992781502736	1
0	9579	7273.813474319576	0
0	9583	7277.499619726361	1
0	9587	7277.911847741964	0
0	9596	7280.627616810788	1
0	9597	7280.899672319932	0
0	9614	7295.775906110566	1
0	9615	7298.05847889437	0
0	9632	7317.121210664142	1
0	9638	7318.223401600722	0
0	9641	7319.451406102059	1
0	9646	7322.256133307458	0
0	9650	7323.692882265177	1
0	9651	7325.745868535178	0
0	9665	7336.990959183382	1
0	9666	7339.383045792651	0
0	9687	7351.730898295995	1
0	9688	7352.676298257209	0
0	9693	7358.669044332215	1
0	9694	7359.267344736494	0
0	9697	7363.613016240406	1
0	9704	7364.000522177516	0
0	9713	7367.082219088235	1
0	9714	7367.740849099963	0
0	9727	7374.510593525884	1
0	9730	7377.182087100436	0
0	9734	7381.019909348736	1
0	9738	7382.579180513842	0
0	9751	7395.493889868786	1
0	9752	7396.301992613644	0
0	9756	7404.53899338464	1
0	9758	7405.607121144333	0
0	9763	7416.762467128784	1
0	9767	7419.274128300237	0
0	9774	7431.025772775244	1
0	9775	7431.53188585155	0
0	9782	7447.994892120001	1
0	9791	7450.866345604413	0
0	9802	7471.678311861796	1
0	9806	7474.401892186483	0
0	9809	7474.422655831939	1
0	9812	7475.941711129595	0
0	9815	7476.197389723106	1
0	9816	7476.747022788535	0
0	9825	7481.427992187332	1
0	9826	7481.540608506666	0
0	9839	7490.943908885764	1
0	9840	7491.988068665263	0
0	9846	7495.369170027583	1
0	9859	7497.948550603844	0
0	9872	7502.469047435243	1
0	9873	7503.123989902567	0
0	9876	7505.407517678921	1
0	9878	7507.025259563162	0
0	9881	7507.06691134228	1
0	9885	7508.105538283764	0
0	9891	7511.923192826458	1
0	9892	7513.318708357865	0
0	9899	7515.897746817322	1
0	9901	7516.141437858772	0
0	9904	7516.166846847545	1
0	9913	7518.016707281609	0
0	9918	7520.680009682044	1
0	9919	7521.108880906259	0
0	9923	7521.657684278243	1
0	9924	7522.948933307342	0
0	9927	7523.520625662393	1
0	9932	7525.56461398445	0
0	9935	7527.195297230436	1
0	9936	7529.931072237812	0
0	9939	7537.260670619224	1
0	9940	7538.397895954065	0
0	9949	7541.246833905299	1
0	9950	7541.939607892834	0
0	9963	7551.125420297302	1
0	9965	7552.641492844899	0
0	9975	7565.450536855188	1
0	9976	7566.103525617313	0
0	9992	7581.28571028111	1
0	9999	7583.544475677533	0
0	10002	7586.115589909651	1
0	10003	7587.727669121115	0
0	10007	7595.010798001819	1
0	10008	7596.669406658013	0
0	10017	7600.891357513445	1
0	10018	7603.338221373762	0
0	10031	7627.91951845337	1
0	10032	7627.952664952071	0
0	10035	7630.655786963091	1
0	10043	7632.123872603817	0
0	10049	7637.523843206398	1
0	10051	7639.940409943101	0
0	10055	7644.705755611319	1
0	10056	7647.241847442266	0
0	10059	7649.269785706445	1
0	10060	7651.035866916146	0
0	10063	7653.262252119468	1
0	10064	7654.37593994499	0
0	10070	7657.739738188488	1
0	10071	7660.729158019761	0
0	10075	7665.182733016501	1
0	10079	7666.241711094676	0
0	10083	7666.555015521641	1
0	10084	7667.183923767235	0
0	10087	7667.202246346876	1
0	10088	7668.178098897189	0
0	10111	7709.783307027901	1
0	10112	7711.172043741254	0
0	10115	7719.089698750428	1
0	10116	7720.480942803072	0
0	10119	7722.31383591965	1
0	10120	7724.407549935135	0
0	10137	7752.301753791209	1
0	10142	7754.286035991647	0
0	10147	7759.710905949022	1
0	10148	7760.060279439568	0
0	10151	7760.846012070224	1
0	10152	7762.563664090734	0
0	10166	7780.240969278997	1
0	10170	7782.991348709237	0
0	10177	7787.80787011033	1
0	10181	7789.272272044066	0
0	10193	7795.744040734436	1
0	10199	7798.544077717881	0
0	10202	7800.467078751958	1
0	10203	7802.874227184999	0
0	10206	7803.370253866326	1
0	10207	7803.954527973972	0
0	10210	7808.10359735882	1
0	10214	7808.781054681772	0
0	10218	7809.679503830272	1
0	10219	7811.079837297906	0
0	10227	7816.263819636935	1
0	10228	7816.677150621879	0
0	10231	7818.675656015909	1
0	10232	7818.678602390563	0
0	10235	7821.063497822809	1
0	10239	7822.867330794963	0
0	10245	7824.535865792936	1
0	10246	7825.253908563918	0
0	10253	7828.840425522771	1
0	10258	7830.552081666782	0
0	10266	7836.049763563309	1
0	10267	7836.091855629226	0
0	10284	7852.894647152358	1
0	10285	7853.194126532289	0
0	10288	7853.346229115227	1
0	10290	7854.658955460932	0
0	10298	7862.836807949507	1
0	10299	7863.798040250351	0
0	10302	7864.237740858622	1
0	10306	7864.604279591218	0
0	10310	7865.689083581625	1
0	10315	7867.881101814693	0
0	10324	7871.462652016609	1
0	10325	7871.860721975994	0
0	10333	7881.502891736915	1
0	10334	7884.311873959184	0
0	10337	7887.09886600056	1
0	10341	7889.232586171352	0
0	10350	7895.955802163782	1
0	10355	7898.644472552755	0
0	10375	7917.740456846421	1
0	10379	7919.979255994148	0
0	10390	7947.676401105508	1
0	10400	7949.210070509565	0
0	10406	7958.372833906891	1
0	10408	7959.139568468562	0
0	10411	7959.418385241527	1
0	10412	7961.696785518029	0
0	10415	7970.704278818994	1
0	10416	7972.317975195857	0
0	10430	7981.707028989195	1
0	10431	7983.141991748832	0
0	10434	7985.102063192454	1
0	10439	7987.596737411359	0
0	10443	7994.27068954965	1
0	10447	7996.766599525246	0
0	10459	8003.645554589906	1
0	10460	8004.212088022867	0
0	10465	8010.117383996155	1
0	10467	8012.620803496133	0
0	10477	8018.13637897739	1
0	10479	8019.693485629753	0
0	10482	8021.869414210941	1
0	10490	8024.457000782174	0
0	10495	8027.517279302526	1
0	10499	8029.40237096226	0
0	10506	8032.115529709695	1
0	10511	8034.151007372869	0
0	10515	8038.251109414949	1
0	10519	8039.48041344055	0
0	10533	8053.83560185408	1
0	10535	8055.504186805341	0
0	10543	8068.751995505445	1
0	10544	8071.461962144938	0
0	10566	8097.573971543557	1
0	10576	8100.093624285631	0
0	10586	8111.63449789719	1
0	10587	8112.550758982506	0
0	10594	8122.954478951436	1
0	10599	8124.481259121943	0
0	10602	8129.677366341684	1
0	10603	8130.048884728143	0
0	10606	8131.336753309732	1
0	10607	8131.377539811367	0
0	10614	8144.22604338089	1
0	10619	8146.48678347377	0
0	10634	8155.181245644784	1
0	10635	8155.650770296799	0
0	10641	8157.447896335719	1
0	10642	8158.631389758321	0
0	10653	8165.084809876954	1
0	10654	8167.153613808191	0
0	10658	8177.212039187052	1
0	10662	8177.766438131133	0
0	10665	8179.002064598784	1
0	10670	8181.464320298065	0
0	10680	8186.737744972153	1
0	10687	8188.809296967673	0
0	10694	8194.15556646972	1
0	10696	8196.173869856987	0
0	10705	8199.290287769951	1
0	10707	8201.766775966014	0
0	10731	8214.145126198729	1
0	10732	8214.99477094569	0
0	10741	8218.052905556393	1
0	10742	8218.298394707879	0
0	10747	8226.997204792574	1
0	10751	8229.213662076471	0
0	10784	8250.741077701865	1
0	10790	8253.649165918783	0
0	10796	8254.266624985607	1
0	10800	8255.441340138701	0
0	10805	8260.188696885169	1
0	10807	8261.038707916006	0
0	10813	8264.126302773988	1
0	10814	8264.266867458572	0
0	10822	8269.674497367046	1
0	10823	8270.64068755072	0
0	10827	8274.661464528219	1
0	10828	8274.688118071781	0
0	10834	8278.67319350187	1
0	10835	8280.296307849789	0
0	10838	8281.429076534313	1
0	10842	8282.970421274057	0
0	10845	8283.563800106548	1
0	10849	8284.146338974983	0
0	10856	8289.076876432798	1
0	10857	8289.349646257886	0
0	10878	8302.659380751279	1
0	10879	8305.379781288723	0
0	10894	8321.07468590779	1
0	10895	8321.627837881434	0
0	10898	8322.090150090483	1
0	10899	8322.478506335641	0
0	10906	8328.215123776705	1
0	10907	8329.835515780953	0
0	10918	8339.311410396797	1
0	10919	8341.19327603336	0
0	10934	8363.230264782491	1
0	10939	8365.997038419436	0
0	10968	8395.024170899777	1
0	10969	8395.776247010289	0
0	10972	8396.856935519017	1
0	10973	8398.52587444233	0
0	10978	8405.505885778125	1
0	10979	8405.871654284437	0
0	10985	8410.479766167701	1
0	10986	8410.861292398896	0
0	10989	8414.562011221574	1
0	10994	8417.389978517945	0
0	10998	8421.076687380638	1
0	10999	8421.697127796486	0
0	11006	8433.184065992272	1
0	11014	8434.425676912188	0
0	11021	8437.629783934952	1
0	11025	8440.057162663348	0
0	11037	8447.367466121038	1
0	11038	8449.077613599925	0
0	11042	8450.997846053468	1
0	11053	8453.126401065582	0
0	11058	8459.095239444399	1
0	11060	8460.55930809169	0
0	11063	8460.788199891665	1
0	11064	8461.133336317981	0
0	11080	8471.156488389593	1
0	11081	8471.287827372381	0
0	11086	8474.748411789611	1
0	11087	8474.768971529615	0
0	11094	8480.20142260615	1
0	11095	8480.377177455604	0
0	11099	8481.470125953615	1
0	11100	8483.121691045404	0
0	11106	8484.134790597116	1
0	11107	8484.281760540659	0
0	11123	8491.546993503338	1
0	11128	8494.274977716485	0
0	11133	8498.985822772731	1
0	11135	8499.966290566019	0
0	11147	8510.66170796314	1
0	11148	8512.624242571401	0
0	11151	8517.619389443432	1
0	11152	8517.760451536007	0
0	11155	8527.74021886131	1
0	11156	8529.580216180768	0
0	11159	8530.823844760598	1
0	11160	8531.352270927978	0
0	11190	8564.960534791206	1
0	11191	8567.467107979343	0
0	11203	8573.355684422426	1
0	11208	8576.319674876218	0
0	11214	8580.398738853403	1
0	11222	8582.417917302427	0
0	11231	8587.888074507474	1
0	11232	8589.218301740269	0
0	11255	8619.893931337788	1
0	11259	8621.928334905327	0
0	11265	8628.274800735996	1
0	11266	8628.740852874746	0
0	11272	8631.069928820877	1
0	11276	8632.092185479392	0
0	11289	8645.457795207647	1
0	11293	8648.156514121676	0
0	11300	8650.573393565164	1
0	11304	8651.786065836062	0
0	11311	8656.289011157367	1
0	11312	8657.268262944267	0
0	11317	8658.543374593314	1
0	11322	8660.785154092863	0
0	11344	8693.439662293939	1
0	11345	8693.632652301215	0
0	11352	8697.372889139408	1
0	11353	8697.669428948796	0
0	11357	8705.972429931339	1
0	11372	8707.706083724697	0
0	11375	8707.729238120553	1
0	11376	8708.015786553203	0
0	11382	8713.63534533075	1
0	11393	8716.251734607989	0
0	11413	8736.757260068241	1
0	11414	8737.77200093858	0
0	11419	8755.435464666591	1
0	11423	8757.065766900345	0
0	11441	8774.362828510257	1
0	11445	8774.952500675642	0
0	11453	8778.154994349465	1
0	11457	8781.041055248697	0
0	11470	8792.722053559443	1
0	11471	8792.801317192441	0
0	11481	8799.809207627922	1
0	11485	8802.214266747087	0
0	11488	8803.81892968047	1
0	11491	8806.752113100246	0
0	11494	8810.994435061953	1
0	11495	8813.54309481038	0
0	11499	8819.201956599266	1
0	11500	8819.737552866495	0
0	11506	8826.532987144513	1
0	11510	8827.812657075371	0
0	11521	8841.08237185951	1
0	11525	8842.757106663462	0
0	11552	8855.502754938224	1
0	11553	8856.351654990065	0
0	11562	8859.061750462235	1
0	11565	8861.388186797202	0
0	11573	8866.968583500685	1
0	11574	8869.189364911216	0
0	11577	8870.672403379115	1
0	11579	8871.854992419034	0
0	11586	8877.466121782653	1
0	11591	8879.582606871239	0
0	11594	8882.417607593308	1
0	11595	8883.28889115252	0
0	11602	8890.252512658928	1
0	11606	8893.190579502215	0
0	11610	8894.813030203393	1
0	11611	8895.250496507948	0
0	11618	8902.341624351305	1
0	11622	8903.245149625499	0
0	11626	8909.923902554312	1
0	11627	8911.022128125724	0
0	11647	8921.685372334995	1
0	11651	8924.402589405075	0
0	11658	8935.194560899949	1
0	11662	8936.597325753382	0
0	11673	8945.856659382607	1
0	11674	8946.031849330041	0
0	11677	8946.870327660321	1
0	11678	8947.996578995799	0
0	11694	8966.827627905548	1
0	11695	8967.495664556691	0
0	11705	8980.428875724973	1
0	11706	8980.47848591	0
0	11710	8985.096785047429	1
0	11711	8987.034474155712	0
0	11715	8989.493408192164	1
0	11719	8990.950797739659	0
0	11723	8993.974426309928	1
0	11724	8995.241471605292	0
0	11727	8997.079876844966	1
0	11728	8997.980952594574	0
0	11731	8998.23613150405	1
0	11732	8998.479654710998	0
0	11738	9009.453269246108	1
0	11739	9009.504391981925	0
0	11750	9021.558868552412	1
0	11751	9022.006694709082	0
0	11754	9027.112886799358	1
0	11755	9027.345631469005	0
0	11758	9029.919491802647	1
0	11766	9031.400966565331	0
0	11777	9038.83359523174	1
0	11782	9040.579199013657	0
0	11787	9046.197891448933	1
0	11794	9047.769080654711	0
0	11801	9050.901744191285	1
0	11808	9053.296232147796	0
0	11830	9060.813200539015	1
0	11831	9060.838733176883	0
0	11835	9066.137489051541	1
0	11842	9068.317582424999	0
0	11847	9069.553406687074	1
0	11851	9071.259852746811	0
0	11855	9072.419036630645	1
0	11859	9073.297417827523	0
0	11862	9076.334209717951	1
0	11863	9077.456699085295	0
0	11882	9101.999107430919	1
0	11883	9103.024278299428	0
0	11893	9109.281421199573	1
0	11894	9111.483569246661	0
0	11905	9126.941932760814	1
0	11910	9128.609128546857	0
0	11914	9129.106088609363	1
0	11916	9130.711484936022	0
0	11930	9150.23692388349	1
0	11931	9151.261534476954	0
0	11937	9159.384024720439	1
0	11941	9162.301912385	0
0	11947	9167.176155739492	1
0	11948	9168.20094070804	0
0	11951	9170.989370122764	1
0	11952	9173.51080897914	0
0	11958	9184.727811691955	1
0	11962	9186.299275655817	0
0	11995	9206.345975194521	1
0	12000	9208.196318641096	0
0	12005	9209.393762174473	1
0	12006	9210.348149153032	0
0	12012	9215.456440960954	1
0	12013	9216.119882202206	0
0	12022	9219.739273732073	1
0	12026	9222.583664941925	0
0	12034	9238.3595896062	1
0	12035	9238.665548756034	0
0	12044	9242.127038356815	1
0	12045	9242.451091931684	0
0	12054	9251.697303434677	1
0	12056	9252.306315325103	0
0	12062	9259.243783965699	1
0	12063	9259.311480781428	0
0	12067	9271.05065121303	1
0	12068	9272.533666529311	0
0	12074	9275.711071425131	1
0	12075	9278.194291037342	0
0	12081	9285.578165731697	1
0	12083	9286.951483007195	0
0	12100	9298.811156421006	1
0	12101	9299.29206834917	0
0	12104	9301.569622760241	1
0	12108	9302.546228432535	0
0	12115	9306.664373185409	1
0	12116	9307.45454660039	0
0	12119	9308.263004773301	1
0	12125	9309.576251931428	0
0	12128	9312.992648374916	1
0	12129	9313.291270009093	0
0	12137	9319.448492094189	1
0	12141	9320.195730577216	0
0	12158	9342.283235279923	1
0	12159	9344.397416699851	0
0	12162	9345.429758767434	1
0	12163	9347.137005230786	0
0	12180	9361.047888697569	1
0	12182	9363.573639239821	0
0	12185	9365.107664314839	1
0	12189	9367.959258063902	0
0	12210	9386.119737799039	1
0	12211	9386.97980314253	0
0	12218	9393.014498016123	1
0	12219	9393.088960181696	0
0	12222	9397.450474667812	1
0	12223	9397.96408714364	0
0	12226	9399.12830939134	1
0	12228	9400.671217594238	0
0	12235	9411.02250978421	1
0	12236	9411.100330441648	0
0	12239	9412.578293573272	1
0	12246	9413.640706438867	0
0	12255	9433.34927784836	1
0	12256	9434.500092938974	0
0	12259	9439.598453773654	1
0	12260	9441.538899632631	0
0	12263	9443.154828447318	1
0	12267	9445.070055154841	0
0	12270	9447.903410880467	1
0	12271	9448.25822820133	0
0	12274	9449.929134525818	1
0	12275	9450.716998874811	0
0	12279	9454.634231728205	1
0	12280	9456.812417887628	0
0	12283	9458.427093852114	1
0	12284	9459.831491087002	0
0	12290	9467.647659563016	1
0	12295	9469.376431864988	0
0	12298	9476.202312581431	1
0	12299	9477.292669400452	0
0	12306	9489.218630899251	1
0	12307	9489.678871191746	0
0	12311	9491.120935349565	1
0	12318	9493.190949073384	0
0	12322	9495.038123243368	1
0	12323	9495.499734014755	0
0	12337	9504.381921079626	1
0	12338	9505.023366163545	0
0	12341	9505.536349335202	1
0	12346	9506.296580415817	0
0	12363	9513.390809206091	1
0	12365	9516.289050878818	0
0	12376	9526.419594256131	1
0	12385	9528.485453239183	0
0	12389	9531.261227128922	1
0	12390	9533.549681932692	0
0	12398	9537.409808188733	1
0	12399	9537.898413716049	0
0	12406	9545.74097853305	1
0	12407	9548.414460032426	0
0	12423	9577.45902549512	1
0	12424	9578.563625290796	0
0	12436	9582.100888122295	1
0	12437	9584.137626082426	0
0	12461	9607.955387571635	1
0	12463	9608.956192084357	0
0	12478	9626.356406835057	1
0	12479	9627.527925812622	0
0	12485	9630.85853896869	1
0	12486	9631.130786404482	0
0	12500	9636.609200770881	1
0	12501	9637.505845532161	0
0	12509	9640.748434577299	1
0	12510	9641.648208987197	0
0	12513	9643.123151199572	1
0	12515	9644.778501077451	0
0	12518	9645.055564471049	1
0	12523	9647.43402989863	0
0	12533	9649.340599865591	1
0	12537	9651.942721796327	0
0	12541	9659.556034444369	1
0	12546	9662.280642760418	0
0	12558	9670.537145986872	1
0	12559	9670.930324469529	0
0	12566	9675.393232305715	1
0	12567	9677.278024400411	0
0	12570	9679.237862814738	1
0	12571	9679.658869872991	0
0	12574	9680.605676553927	1
0	12575	9680.77686742215	0
0	12578	9681.75223454802	1
0	12579	9682.188387219754	0
0	12588	9685.298943189462	1
0	12597	9687.843438636862	0
0	12606	9693.634417415742	1
0	12610	9694.595196831065	0
0	12626	9705.836553673043	1
0	12627	9706.40695634387	0
0	12634	9714.836983990062	1
0	12635	9715.277223813591	0
0	12651	9730.649158184826	1
0	12655	9733.285044922905	0
0	12658	9735.950862695197	1
0	12659	9736.407342809877	0
0	12667	9748.678826940873	1
0	12671	9750.997455402542	0
0	12682	9763.893679412059	1
0	12687	9764.944738342682	0
0	12700	9768.643776074919	1
0	12701	9770.179730366008	0
0	12716	9793.098578796059	1
0	12717	9793.924877760456	0
0	12720	9797.143808550393	1
0	12722	9799.750616745981	0
0	12732	9806.03190375694	1
0	12738	9808.079921466663	0
0	12745	9809.352526597103	1
0	12746	9811.23995676234	0
0	12749	9811.613194717159	1
0	12754	9812.941862897232	0
0	12758	9814.848220280419	1
0	12759	9814.878955647046	0
0	12776	9826.40132759132	1
0	12781	9827.870504085319	0
0	12801	9847.250272894358	1
0	12802	9847.255440229209	0
0	12820	9853.961050438334	1
0	12821	9854.869089276842	0
0	12835	9888.411144662484	1
0	12836	9889.426252802236	0
0	12839	9890.050427113472	1
0	12843	9892.655254597175	0
0	12849	9896.567341834202	1
0	12850	9898.832999462233	0
0	12864	9902.921901605059	1
0	12865	9903.062416354604	0
0	12874	9912.021840366456	1
0	12875	9912.468128791117	0
0	12895	9927.492173067847	1
0	12899	9930.195439690151	0
0	12903	9930.805208476169	1
0	12904	9931.732124765075	0
0	12908	9932.323517120563	1
0	12912	9935.003888376902	0
0	12915	9936.458310608266	1
0	12916	9937.525999631652	0
0	12922	9942.858541144755	1
0	12923	9943.046921018417	0
0	12931	9951.008773712685	1
0	12932	9952.875800827728	0
0	12938	9955.86012000905	1
0	12951	9957.814080387751	0
0	12962	9962.367086380047	1
0	12963	9962.748627677491	0
0	12994	9985.284648374021	1
0	12999	9987.828084135814	0
0	13011	10010.406622806604	1
0	13012	10011.243270338486	0
0	13015	10015.831261535307	1
0	13016	10018.184965964986	0
0	13025	10027.035827201423	1
0	13029	10028.898492065644	0
0	13038	10032.836246608379	1
0	13043	10035.805224872164	0
0	13051	10042.876876992755	1
0	13052	10044.22588904576	0
0	13055	10051.223262825131	1
0	13072	10053.315625271524	0
0	13076	10055.903804525764	1
0	13078	10057.45173430751	0
0	13089	10063.151554808581	1
0	13091	10063.784891766278	0
0	13094	10064.716676010468	1
0	13095	10064.756534453663	0
0	13109	10077.865293904909	1
0	13111	10079.546752004375	0
0	13118	10091.77504210508	1
0	13119	10091.969423375581	0
0	13128	10094.105816761973	1
0	13129	10094.548890010251	0
0	13138	10098.630340377267	1
0	13139	10099.761475822531	0
0	13156	10116.204405047847	1
0	13157	10117.989089304048	0
0	13166	10136.291738355788	1
0	13167	10136.776141818116	0
0	13171	10141.104390493345	1
0	13175	10143.100409285623	0
0	13196	10158.327036516729	1
0	13198	10159.078725702798	0
0	13201	10159.134482675942	1
0	13202	10160.450815128265	0
0	13207	10171.255460210107	1
0	13211	10173.210440786687	0
0	13218	10175.62541776649	1
0	13219	10177.051253687836	0
0	13238	10190.261680716514	1
0	13239	10190.606131545271	0
0	13252	10209.438481591942	1
0	13260	10212.394885564724	0
0	13275	10227.268180643544	1
0	13276	10228.761084585959	0
0	13279	10235.986947306455	1
0	13280	10236.27535540447	0
0	13286	10239.85628758434	1
0	13287	10241.176752557215	0
0	13290	10241.683932959943	1
0	13292	10244.003223177028	0
0	13298	10247.783093636816	1
0	13299	10249.529610798361	0
0	13329	10269.308421429377	1
0	13330	10270.515390483069	0
0	13334	10272.445031628832	1
0	13336	10274.034346611526	0
0	13349	10282.607809358228	1
0	13350	10282.66183223797	0
0	13363	10291.757329255698	1
0	13364	10292.9468473236	0
0	13377	10308.96150642452	1
0	13378	10310.334316749258	0
0	13381	10314.016984639731	1
0	13383	10314.517895306364	0
0	13391	10328.556116278648	1
0	13392	10330.987946486745	0
0	13398	10341.014018276262	1
0	13400	10342.598677948342	0
0	13406	10348.154700025518	1
0	13407	10349.527771875503	0
0	13410	10351.01314638949	1
0	13412	10353.486798156312	0
0	13421	10356.982553715293	1
0	13432	10359.740212472955	0
0	13435	10360.423307138111	1
0	13437	10362.684391940258	0
0	13441	10363.773273699148	1
0	13442	10364.247078767906	0
0	13450	10370.708426463979	1
0	13455	10371.398855104988	0
0	13459	10376.870570561715	1
0	13469	10377.42669520913	0
0	13473	10377.951138231199	1
0	13475	10378.626978397773	0
0	13484	10381.350816326742	1
0	13489	10382.253959810265	0
0	13499	10389.283210088508	1
0	13500	10390.665657542056	0
0	13509	10401.507342214183	1
0	13510	10402.328587650778	0
0	13525	10420.919064298089	1
0	13534	10423.137414189398	0
0	13537	10428.546945205332	1
0	13538	10428.7690643535	0
0	13542	10431.386961239074	1
0	13546	10432.547134930126	0
0	13552	10433.674692093822	1
0	13553	10435.539411221761	0
0	13564	10442.450523086241	1
0	13571	10444.737261117485	0
0	13577	10446.036824663365	1
0	13578	10446.267640341146	0
0	13586	10449.720407502727	1
0	13587	10449.780220495101	0
0	13601	10463.036636860673	1
0	13605	10464.527945957869	0
0	13631	10482.143495861135	1
0	13635	10482.309438669657	0
0	13645	10489.682397904264	1
0	13650	10491.991601190033	0
0	13663	10500.179091546025	1
0	13666	10501.679336855956	0
0	13674	10517.257638917755	1
0	13676	10519.236430900971	0
0	13682	10523.562693814548	1
0	13686	10524.997520189452	0
0	13689	10526.01853922078	1
0	13690	10527.256155340288	0
0	13707	10536.285523951114	1
0	13713	10537.725340109576	0
0	13753	10563.858094287595	1
0	13759	10566.411771832687	0
0	13766	10571.921864787516	1
0	13767	10574.359932351922	0
0	13770	10579.774597649004	1
0	13771	10579.917843229552	0
0	13774	10582.181996043381	1
0	13778	10584.044806570188	0
0	13793	10596.767947141744	1
0	13794	10599.246964860294	0
0	13798	10603.620851529958	1
0	13802	10605.336213675369	0
0	13816	10614.465209941751	1
0	13823	10615.445116090697	0
0	13832	10622.813617529218	1
0	13839	10624.278322618573	0
0	13843	10625.234378920768	1
0	13849	10627.931377341875	0
0	13852	10628.209872051095	1
0	13856	10630.555584418563	0
0	13874	10635.690050571288	1
0	13876	10637.863484521371	0
0	13879	10637.924782714733	1
0	13888	10640.744324564385	0
0	13893	10645.330049437229	1
0	13897	10648.173115404186	0
0	13901	10653.13015561453	1
0	13910	10654.876609924863	0
0	13917	10665.119383428363	1
0	13918	10666.387382474982	0
0	13947	10682.594742367486	1
0	13949	10685.021469691938	0
0	13957	10693.568447600685	1
0	13958	10694.907634349617	0
0	13963	10698.490059496868	1
0	13964	10698.752376267751	0
0	13967	10698.780465729922	1
0	13971	10701.232051266356	0
0	13986	10707.168551028932	1
0	13994	10709.823137018267	0
0	13997	10711.573040254359	1
0	14005	10713.222200668254	0
0	14008	10715.282289917424	1
0	14011	10716.50623465376	0
0	14014	10718.928473572848	1
0	14020	10721.453210650253	0
0	14026	10722.448488030532	1
0	14031	10724.213355549589	0
0	14049	10734.979296273708	1
0	14050	10735.340999214062	0
0	14059	10746.497152484284	1
0	14060	10746.711051060207	0
0	14063	10748.340640090202	1
0	14068	10750.416897698406	0
0	14075	10757.286437729594	1
0	14076	10758.101709736225	0
0	14079	10759.403586510409	1
0	14080	10759.786282230388	0
0	14083	10760.361512335172	1
0	14087	10762.877043742593	0
0	14097	10769.491717393686	1
0	14101	10770.078857255063	0
0	14115	10776.822446277272	1
0	14117	10777.399186209929	0
0	14123	10787.759139438167	1
0	14128	10789.938058009568	0
0	14131	10792.273184986217	1
0	14132	10793.377660594447	0
0	14135	10795.679275000768	1
0	14136	10797.122401819072	0
0	14139	10801.211259083134	1
0	14140	10802.457375535299	0
0	14146	10812.042140581188	1
0	14147	10812.266193957884	0
0	14158	10819.33439647349	1
0	14159	10820.259802984436	0
0	14166	10825.454769355156	1
0	14167	10825.511028517645	0
0	14171	10827.711814942656	1
0	14175	10830.644680069335	0
0	14186	10839.093727207364	1
0	14187	10839.676261312054	0
0	14190	10840.077879323192	1
0	14195	10840.927087248628	0
0	14204	10843.832187712457	1
0	14205	10844.393706142585	0
0	14215	10848.341934698305	1
0	14216	10850.72269647819	0
0	14223	10850.9837926191	1
0	14228	10853.677918576274	0
0	14252	10880.96916798351	1
0	14254	10882.941157151182	0
0	14262	10893.974011725497	1
0	14266	10895.082617010533	0
0	14306	10935.861970575325	1
0	14315	10938.028400130954	0
0	14318	10941.178398177747	1
0	14319	10942.468406917162	0
0	14326	10949.843905152531	1
0	14327	10949.999934370169	0
0	14335	10958.610680351343	1
0	14339	10959.176666779674	0
0	14349	10972.007748614258	1
0	14350	10972.098602976801	0
0	14363	10991.876331519814	1
0	14364	10992.576625188673	0
0	14380	11009.674692549652	1
0	14381	11010.073836821013	0
0	14394	11024.927431643137	1
0	14398	11027.657219575429	0
0	14408	11032.211858870633	1
0	14409	11033.655426257452	0
0	14412	11034.041582797149	1
0	14413	11036.059205822245	0
0	14418	11044.386864100384	1
0	14419	11046.416266758085	0
0	14429	11050.60459978155	1
0	14433	11051.49811964694	0
0	14447	11060.761407200417	1
0	14448	11060.819693570027	0
0	14452	11063.22392124215	1
0	14457	11065.447932539379	0
0	14461	11065.998043828534	1
0	14462	11068.364335834644	0
0	14465	11068.455864633901	1
0	14469	11069.79867449276	0
0	14474	11075.416312940359	1
0	14475	11077.170736283987	0
0	14478	11078.867508966142	1
0	14479	11080.650101353259	0
0	14507	11125.205323599691	1
0	14508	11127.478136588445	0
0	14511	11136.606898407171	1
0	14512	11138.246921174151	0
0	14527	11160.151492508362	1
0	14528	11161.543413305811	0
0	14541	11175.110403617642	1
0	14542	11175.755845979602	0
0	14546	11177.906611581812	1
0	14548	11180.424606223248	0
0	14551	11180.862532956326	1
0	14552	11181.921547356418	0
0	14558	11195.345153864164	1
0	14559	11197.619040763293	0
0	14562	11200.458065759594	1
0	14567	11201.904503763094	0
0	14573	11204.194200260756	1
0	14581	11206.580551088824	0
0	14586	11210.152768300065	1
0	14587	11210.170573735615	0
0	14602	11230.402507684322	1
0	14603	11230.979534069876	0
0	14620	11240.992579475371	1
0	14630	11243.59396867607	0
0	14647	11256.223426522119	1
0	14654	11257.541266976413	0
0	14667	11270.578500489589	1
0	14668	11271.135991930652	0
0	14681	11287.029714793237	1
0	14682	11287.5285737578	0
0	14692	11293.185793458368	1
0	14694	11294.548959605199	0
0	14697	11294.87310223647	1
0	14701	11296.33141958121	0
0	14708	11304.800858672708	1
0	14713	11307.151663956501	0
0	14716	11307.535723902609	1
0	14718	11308.999451798822	0
0	14727	11316.789460570256	1
0	14728	11318.146466648693	0
0	14741	11332.929852663741	1
0	14742	11333.545848272248	0
0	14748	11334.113240570036	1
0	14750	11336.941820133569	0
0	14756	11339.083441477849	1
0	14757	11339.371499763889	0
0	14763	11343.614309388063	1
0	14767	11346.613526835235	0
0	14770	11347.790001322219	1
0	14772	11350.410822189699	0
0	14781	11353.882019730339	1
0	14782	11354.504007323218	0
0	14789	11358.174444713241	1
0	14790	11358.293324617833	0
0	14793	11360.116754110958	1
0	14795	11361.139191298414	0
0	14805	11367.876216370186	1
0	14809	11370.243404671119	0
0	14814	11371.36832334593	1
0	14818	11373.034959087171	0
0	14823	11386.119604255556	1
0	14827	11388.606688619994	0
0	14830	11390.983499499927	1
0	14831	11393.48435101099	0
0	14846	11404.31348432129	1
0	14847	11404.914237790389	0
0	14850	11405.852910472612	1
0	14851	11406.044452170818	0
0	14855	11407.979969932579	1
0	14856	11408.827394518502	0
0	14859	11410.848163074131	1
0	14863	11411.646088146693	0
0	14870	11422.163752350017	1
0	14875	11424.442277123089	0
0	14878	11426.814841049753	1
0	14879	11429.399897955438	0
0	14883	11434.313438654828	1
0	14894	11436.643486894014	0
0	14898	11438.22821613695	1
0	14902	11439.324895418734	0
0	14910	11440.797682238417	1
0	14911	11440.815635695888	0
0	14914	11441.503341016037	1
0	14918	11442.351208213813	0
0	14924	11443.714869051082	1
0	14929	11446.468030280839	0
0	14937	11453.36001608943	1
0	14938	11454.673272297246	0
0	14942	11458.062327368311	1
0	14943	11458.596269943697	0
0	14951	11470.847848142502	1
0	14952	11471.252024139473	0
0	14958	11475.699885556303	1
0	14960	11476.871183448345	0
0	14995	11513.273296799568	1
0	14996	11513.880161474501	0
0	15004	11517.011756357731	1
0	15010	11519.346665208235	0
0	15014	11519.873253085754	1
0	15019	11521.456219280646	0
0	15030	11535.543848685996	1
0	15034	11537.397477522722	0
0	15049	11553.042822337222	1
0	15050	11554.300429358771	0
0	15085	11580.7351686784	1
0	15091	11583.404532605477	0
0	15110	11593.864465806966	1
0	15115	11594.981346572599	0
0	15123	11600.425001588326	1
0	15124	11602.845388055518	0
0	15130	11603.239820332387	1
0	15131	11604.316221926131	0
0	15138	11612.71376514893	1
0	15139	11612.787144654211	0
0	15142	11619.270829398793	1
0	15143	11619.672087138151	0
0	15146	11622.972918505683	1
0	15153	11624.184611415306	0
0	15169	11632.273617054218	1
0	15170	11632.697141336197	0
0	15182	11646.376493674755	1
0	15187	11649.261912814793	0
0	15201	11664.408437937489	1
0	15202	11665.453270556369	0
0	15210	11674.229039566575	1
0	15215	11677.135925574692	0
0	15243	11698.181620080781	1
0	15245	11699.751857758813	0
0	15256	11709.523643386743	1
0	15263	11712.425586703021	0
0	15267	11716.29906027049	1
0	15268	11717.374682692064	0
0	15274	11721.609001077634	1
0	15276	11722.213999507003	0
0	15282	11726.781648248159	1
0	15283	11727.60147121154	0
0	15289	11730.021253621494	1
0	15290	11730.290847619334	0
0	15314	11750.639468956761	1
0	15322	11752.864029029054	0
0	15326	11755.302493087402	1
0	15327	11756.537605343329	0
0	15330	11757.895082456307	1
0	15332	11760.668311858152	0
0	15335	11765.849058877953	1
0	15336	11767.857258136474	0
0	15342	11770.104350283924	1
0	15352	11772.017267435929	0
0	15355	11773.331093991871	1
0	15356	11773.412444499761	0
0	15379	11788.208546245015	1
0	15383	11789.153866697019	0
0	15387	11792.688300378817	1
0	15389	11793.590555736417	0
0	15396	11802.374814021126	1
0	15397	11803.67204267081	0
0	15400	11804.685808671669	1
0	15401	11804.753354423226	0
0	15405	11807.978530774768	1
0	15409	11808.829482905753	0
0	15417	11817.541191441398	1
0	15418	11818.485369084693	0
0	15430	11835.795177387767	1
0	15434	11837.740853157976	0
0	15437	11840.60722023742	1
0	15441	11842.031837473407	0
0	15448	11844.543473036449	1
0	15453	11846.109744777904	0
0	15456	11846.314707791769	1
0	15457	11847.551593183253	0
[...]
11	53189	39926.32896262727	3.460603962779
11	53403	40068.706197615424	18.709331448795
11	53419	40079.037056036211	4.39061726612
11	53484	40110.459328671453	6.182842888261
11	53602	40198.952731102961	7.436884924215
11	53682	40257.40291371613	6.528055503445
11	53735	40289.843574546805	5.461967530919
11	54046	40479.033729817999	12.494529177494
11	54104	40532.795908311896	5.809958819357
11	54270	40709.811212972851	5.791853389683
11	54414	40815.735156060724	6.381410861528
11	54436	40828.788944016559	4.452505014276
11	54459	40837.986560094287	7.05421005096
11	54506	40866.98987923439	12.228308388655
11	54559	40913.885503025341	9.082482274027
11	54587	40927.925098577579	9.76302148306
11	54609	40940.313506996682	5.715165766824
11	54830	41133.625603988023	10.54988086542
11	54869	41156.963914863882	8.631373381845
11	54939	41203.768205992241	4.430441029159
11	54971	41216.663722457224	3.476849733867
11	55030	41266.955895934251	7.131111343337
11	55211	41471.446141029767	4.543177163655
11	55260	41515.586657910969	5.807180696455
11	55273	41523.556459156005	4.115218466107
11	55280	41531.540472012234	7.937230079144
11	55337	41559.340155274851	5.410853098755
11	55359	41568.817241740351	6.406109856976
11	55430	41613.447415569759	4.832537563265
11	55477	41629.315060641493	11.693895392259
11	55546	41677.35685355599	9.221607018466
11	55575	41690.408895916335	10.158762744642
11	55659	41753.992980627577	12.356695433218
11	55693	41769.8520305101	7.249827804464
11	55765	41800.536702994389	7.898678602524
11	55829	41850.191164239824	6.077396431257
11	55984	41975.009125131528	9.114394820187
11	56155	42108.873051653403	16.95153731301
11	56294	42258.845886108325	4.22662225073
11	56442	42359.334846477209	3.283396569698
11	56459	42366.472377097529	4.627356928282
11	56482	42382.828468365417	6.220776567471
11	56587	42449.27508061891	11.702356605133
11	56614	42466.221847282842	5.281438399799
11	56687	42515.509451181075	15.351276811469
11	56719	42531.166296266242	6.341198761275
11	56738	42543.445052079263	11.343953869804
11	56783	42563.140663722179	7.815333844041
11	56814	42580.752440886706	9.967597849463
11	56851	42599.002663409638	10.3883692828
11	56855	42602.469436103021	5.519332093062
11	56861	42606.069651154155	3.703037143389
11	57051	42741.833165229887	7.749276039437
11	57146	42813.515529447924	7.027562260619
11	57278	42920.801322426516	4.192166002162
11	57375	42995.18034630783	9.253133168552
11	57503	43099.818294003565	3.864620581263
11	57730	43313.968518267726	5.157984011061
11	57772	43339.448188631682	12.455973901684
11	57825	43365.116878107761	4.911384932683
11	57834	43371.498457063169	3.476441259569
11	57862	43386.461740344954	4.313288739004
11	58074	43573.596996042962	3.81837565082
11	58109	43593.943848461037	10.148656865736
11	58158	43640.013178991473	21.608555676286
11	58263	43707.500833180891	9.408519137932
11	58370	43802.677386271056	14.8011977854
11	58423	43836.369007849469	9.145431717063
11	58643	44006.260184671707	3.094415188696
11	58664	44018.251413189872	4.796937367917
11	58792	44114.95247919666	3.928632161938
11	58873	44178.885132403719	5.969994734285
11	59094	44354.02496014096	3.857433997016
11	59115	44365.035239889373	6.770739317504
11	59215	44444.909878551902	6.163353950882
11	59290	44496.317784446169	12.544659804377
11	59345	44531.058295719616	4.496802349315
11	59389	44570.893044579099	9.187370419044
11	59417	44581.683999312868	10.626373332492
11	59676	44796.593355001725	15.04340636544
11	59692	44807.511194716063	6.447761511544
11	59822	44890.69703444928	3.819587209311
11	59852	44918.470233255132	4.471532478216
11	60174	45179.821565926471	10.567999748259
11	60187	45185.748028256955	3.577241296863
11	60343	45323.042854841028	4.009303561961
11	60426	45371.99404515638	5.013905073268
11	60514	45425.580596403131	12.330475822555
11	60715	45581.339937071772	8.594927214007
11	60779	45626.938214007973	8.560050025476
11	60875	45691.146685098819	9.514125059917
11	61094	45870.954597439346	4.315212090592
11	61158	45915.203664910952	5.310668992165
11	61187	45930.063050080145	10.512368784873
11	61272	45982.308659025904	8.210280684388
11	61320	46015.370628152603	15.911406566437
11	61379	46046.604630450962	11.427452206711
11	61468	46130.287832436544	4.560059693695
11	61475	46136.667207399524	5.816614933416
11	61506	46166.986237446688	3.178703660807
11	61562	46198.198917038919	3.674691216373
11	61724	46310.065856434632	4.120969440832
11	61758	46339.929425692494	11.009758448806
11	61836	46413.380975564547	6.708259866438
11	61855	46429.653814258451	15.165065717181
11	61958	46475.458387756409	8.439145686591
11	62070	46575.358953548136	4.008802145362
11	62278	46730.925543358306	3.078460973699
11	62465	46854.737633911039	14.942052082275
11	62583	46974.584982741583	6.765147856345
11	62736	47088.489556131027	5.511571583123
11	62771	47115.557629224663	4.127641785283
11	62918	47222.684391564229	25.200065513044
11	62973	47255.957883103586	3.862378552609
11	63033	47308.070716725824	14.631190391103
11	63166	47394.189632485656	3.339033203235
11	63282	47486.461525127179	14.866129364266
11	63376	47588.926027751619	9.653612241911
11	63393	47596.778705385274	5.505293370927
11	63470	47662.896022314424	6.344060417851
11	63498	47679.922464744909	7.812627611011
11	63516	47685.728938289958	3.985755119806
11	63527	47693.750107871164	7.286725159318
11	63686	47803.462724140685	12.294099816023
11	63710	47817.639483478231	6.097459441765
11	63723	47829.256378349357	6.773291213064
11	63769	47872.045370530975	8.26068675249
11	63787	47887.715744946844	6.075041659478
11	63802	47895.436228198431	7.359240228942
11	63862	47931.213658415094	3.982558211059
11	63882	47942.732658648013	6.422658074885
11	63893	47949.272026006803	3.91935746759
11	63903	47953.557448900591	3.8512930398
11	63937	47973.601704850121	12.087052989669
11	63957	47985.51615325331	6.034787372339
11	64070	48063.268535559252	12.130032861135
11	64110	48077.79146032088	5.379088357364
11	64258	48196.864386153688	4.001196488101
11	64298	48222.809258258444	7.742350130642
11	64457	48359.251207925781	8.354515631269
11	64551	48416.211183778333	4.436673339398
11	64626	48475.793268360861	5.349801507382
11	64814	48646.343701015516	4.323626557796
11	64860	48672.561466233361	4.237163147194
11	64915	48709.767137968759	5.921253810916
11	64942	48730.5847078441	5.081667776255
11	65030	48799.703098941699	9.330344147161
11	65122	48866.356770151708	15.516451629088
11	65532	49173.582867749246	3.032350742688
11	65548	49178.927739914389	4.569657333906
11	65572	49183.809660346444	3.76916235532
11	65611	49213.959168893885	20.489094992046
11	65757	49325.551085641716	10.772004055964
11	65844	49392.653715412743	13.40707332031
11	65951	49453.515289842956	6.133546010842
11	66027	49513.929839769056	9.083179735993
11	66256	49680.795847727824	15.044564526799
11	66265	49688.275654214713	6.800914122867
11	66295	49717.855534902511	10.325078133806
11	66345	49767.3088540868	9.490856078138
11	66403	49807.336957796814	6.539147639456
11	66450	49842.27523598181	7.02472859126
11	66469	49849.391164137918	5.25610554671
11	66536	49881.980190554132	4.494290481944
11	66687	49992.278370350858	5.75522816302
12	760	582.55819775818	1
12	762	583.910860775389	0
12	1063	809.517110700485	1
12	1064	809.611227414589	0
12	1132	850.716234112492	1
12	1140	852.962570318598	0
12	1526	1178.941630050011	1
12	1528	1179.282815953793	0
12	1708	1316.162891377399	1
12	1713	1316.571762241055	0
12	2145	1616.117530055422	1
12	2151	1618.524695548564	0
12	2502	1923.823254067933	1
12	2504	1924.410932977396	0
12	2693	2039.020025302172	1
12	2703	2041.515665735143	0
12	3279	2454.160927567261	1
12	3281	2454.738087118079	0
12	5684	4293.453796541538	1
12	5687	4295.333257316151	0
12	6609	4969.365338472454	1
12	6612	4971.560250742661	0
12	8063	6088.495279156532	1
12	8064	6088.684373508285	0
12	8558	6433.230679602145	1
12	8559	6433.563677507463	0
12	9156	6939.554495612089	1
12	9164	6941.695722080742	0
12	9321	7052.045837885486	1
12	9324	7053.894826245057	0
12	9703	7363.798337021376	1
12	9709	7366.110941011732	0
12	9858	7497.500875043472	1
12	9860	7498.625565928001	0
12	9911	7517.683286372313	1
12	9912	7517.687109762757	0
12	10489	8024.42554996258	1
12	10492	8025.157117400281	0
12	11012	8433.48779427697	1
12	11015	8434.707428942484	0
12	11048	8451.209856607338	1
12	11054	8453.391910100567	0
12	11371	8707.297025436659	1
12	11379	8709.588201333834	0
12	11388	8715.006374862871	1
12	11389	8715.78549043559	0
12	11392	8716.071048633477	1
12	11395	8718.271459401448	0
12	11765	9031.354474729989	1
12	11768	9033.591834876048	0
12	11841	9066.985427415591	1
12	11843	9068.677104895324	0
12	13258	10211.127184160221	1
12	13261	10213.628468891378	0
12	13465	10377.09709687393	1
12	13474	10378.045202329165	0
12	13838	10623.717440842673	1
12	13844	10625.435572789955	0
12	13908	10653.879526926415	1
12	13909	10654.091842759046	0
12	15563	11919.258571138247	1
12	15575	11920.230553198511	0
12	16328	12472.175207165988	1
12	16331	12474.951975913954	0
12	17109	13039.143976336321	1
12	17115	13041.752052863647	0
12	17807	13589.943689393395	1
12	17814	13590.737187473311	0
12	17885	13675.343049291538	1
12	17891	13677.601662217274	0
12	17937	13716.906002661047	1
12	17939	13717.149910852007	0
12	18506	14210.422293366196	1
12	18509	14212.428449847267	0
12	18568	14254.676574903768	1
12	18569	14254.934805526314	0
12	19323	14815.823707780056	1
12	19324	14815.959006700929	0
12	19827	15208.339633164301	1
12	19829	15208.81315228473	0
12	20544	15762.079438995031	1
12	20551	15764.65104681949	0
12	21099	16188.145400235521	1
12	21104	16189.966067978266	0
12	21488	16501.671814470657	1
12	21491	16501.779470847417	0
12	21515	16515.947525927811	1
12	21518	16517.320008104112	0
12	21709	16660.71052126285	1
12	21715	16662.162219042435	0
12	22221	17050.003370040406	1
12	22222	17050.296786550633	0
12	22225	17050.361454106667	1
12	22231	17052.814160598964	0
12	22954	17657.403721335462	1
12	22962	17659.402397560185	0
12	23725	18260.448032628531	1
12	23733	18261.253975543657	0
12	24064	18501.953508389519	1
12	24069	18504.290987350806	0
12	25389	19470.090326481289	1
12	25391	19471.061568484468	0
12	25763	19697.578629880352	1
12	25770	19700.172683516449	0
12	26372	20200.494158885367	1
12	26373	20201.804597981149	0
12	26887	20596.815318620481	1
12	26888	20596.819252869563	0
12	26960	20684.556045976172	1
12	26963	20686.141964671713	0
12	27895	21383.254670704598	1
12	27900	21385.094837695314	0
12	28105	21574.76947812646	1
12	28114	21576.802946188399	0
12	28192	21630.460865734826	1
12	28193	21630.91742317611	0
12	28984	22165.707727544705	1
12	28987	22167.383231562322	0
12	30281	23124.352143366635	1
12	30282	23124.508558688918	0
12	31277	23824.137829742855	1
12	31283	23826.238096398325	0
12	31413	23921.118517765413	1
12	31416	23922.174243368959	0
12	31876	24244.630986030357	1
12	31879	24246.030046776138	0
12	32302	24537.608040141897	1
12	32305	24537.899504354569	0
12	33004	25052.674632013566	1
12	33006	25053.221745074549	0
12	33137	25145.692676825406	1
12	33139	25145.943343248865	0
12	33848	25660.237456780391	1
12	33853	25662.102996101406	0
12	35076	26568.192769082467	1
12	35077	26568.447838637274	0
12	35325	26725.943604681749	1
12	35329	26727.984248180833	0
12	35348	26737.671114014129	1
12	35352	26738.420463897865	0
12	35358	26738.960429846873	1
12	35361	26739.327995232936	0
12	35440	26789.91807169758	1
12	35441	26789.957268261519	0
12	36569	27615.475614276445	1
12	36572	27617.400726917137	0
12	37272	28131.676508612314	1
12	37275	28133.455261422685	0
12	37919	28594.487494710709	1
12	37922	28597.391379245021	0
12	38595	29006.055200253383	1
12	38605	29008.21833799379	0
12	41683	31453.71385397307	1
12	41692	31455.571399511735	0
12	42725	32308.400972416779	1
12	42727	32309.697296661936	0
12	42790	32343.932320236299	1
12	42794	32345.593777322364	0
12	42928	32431.851850220991	1
12	42932	32433.433789060981	0
12	44684	33788.890261145335	1
12	44691	33790.730002453282	0
12	45948	34778.724514111308	1
12	45956	34779.802372383285	0
12	46201	34991.109087309207	1
12	46206	34993.132828483539	0
12	46316	35092.783977187543	1
12	46319	35094.03216618046	0
12	48587	36780.869090571917	1
12	48588	36781.139111269698	0
12	48654	36817.566960663272	1
12	48658	36819.669514449295	0
12	49056	37085.978871007397	1
12	49059	37088.88395835061	0
12	49643	37512.03365515234	1
12	49644	37512.223904160352	0
12	51196	38578.114944289851	1
12	51205	38580.476709852404	0
12	51322	38644.579481886807	1
12	51333	38646.637511746761	0
12	52131	39232.562825986029	1
12	52137	39235.364962120851	0
12	53349	40034.803750803382	1
12	53352	40035.937973382611	0
12	53751	40294.646438985136	1
12	53755	40295.085692152832	0
12	53799	40322.273494080699	1
12	53800	40323.269425362709	0
12	53906	40395.808590828701	1
12	53907	40396.121162141239	0
12	53910	40396.436015453965	1
12	53915	40397.042405422794	0
12	53918	40397.688602914757	1
12	53922	40399.65310224547	0
12	53967	40421.140576286154	1
12	53971	40423.294016880638	0
12	54987	41230.540056905819	1
12	54996	41232.485782225259	0
12	55613	41714.348762441441	1
12	55615	41714.939103595979	0
12	55969	41967.048367729625	1
12	55973	41969.683494346233	0
12	56915	42649.033675575734	1
12	56920	42651.899267913904	0
12	57340	42970.810416396143	1
12	57341	42970.867601972824	0
12	57459	43061.7359167036	1
12	57460	43061.747122472585	0
12	57931	43453.21391417259	1
12	57939	43455.651972675383	0
12	58100	43587.420983818357	1
12	58107	43588.625528845139	0
12	59870	44923.66166238822	1
12	59876	44925.065552452721	0
12	60225	45225.788270486624	1
12	60226	45225.838263922267	0
12	60528	45429.340827966833	1
12	60530	45430.068686434702	0
12	61183	45927.592249430136	1
12	61188	45930.541317598054	0
12	61954	46473.248287795553	1
12	61957	46475.337954990727	0
12	62148	46648.812361185671	1
12	62154	46651.674699733991	0
12	62542	46933.059760386745	1
12	62544	46933.849137581592	0
12	63143	47384.493568083765	1
12	63144	47384.897706797758	0
12	63432	47630.817421105981	1
12	63434	47631.289709728284	0
12	64035	48048.350297888529	1
12	64038	48049.588820155387	0
12	64080	48066.559053100506	1
12	64086	48069.312816271014	0
12	65566	49182.485986139625	1
12	65573	49184.91819327763	0
13	762	583.910860775389	1.352663017209
13	1064	809.611227414589	0.094116714104
13	1140	852.962570318598	2.246336206106
13	1528	1179.282815953793	0.341185903782
13	1713	1316.571762241055	0.408870863656
13	2151	1618.524695548564	2.407165493142
13	2504	1924.410932977396	0.587678909463
13	2703	2041.515665735143	2.495640432971
13	3281	2454.738087118079	0.577159550818
13	5687	4295.333257316151	1.879460774613
13	6612	4971.560250742661	2.194912270207
13	8064	6088.684373508285	0.189094351753
13	8559	6433.563677507463	0.332997905318
13	9164	6941.695722080742	2.141226468653
13	9324	7053.894826245057	1.848988359571
13	9709	7366.110941011732	2.312603990356
13	9860	7498.625565928001	1.124690884529
13	9912	7517.687109762757	0.003823390444
13	10492	8025.157117400281	0.731567437701
13	11015	8434.707428942484	1.219634665514
13	11054	8453.391910100567	2.182053493229
13	11379	8709.588201333834	2.291175897175
13	11389	8715.78549043559	0.779115572719
13	11395	8718.271459401448	2.200410767971
13	11768	9033.591834876048	2.237360146059
13	11843	9068.677104895324	1.691677479733
13	13261	10213.628468891378	2.501284731157
13	13474	10378.045202329165	0.948105455235
13	13844	10625.435572789955	1.718131947282
13	13909	10654.091842759046	0.212315832631
13	15575	11920.230553198511	0.971982060264
13	16331	12474.951975913954	2.776768747966
13	17115	13041.752052863647	2.608076527326
13	17814	13590.737187473311	0.793498079916
13	17891	13677.601662217274	2.258612925736
13	17939	13717.149910852007	0.24390819096
13	18509	14212.428449847267	2.006156481071
13	18569	14254.934805526314	0.258230622546
13	19324	14815.959006700929	0.135298920873
13	19829	15208.81315228473	0.473519120429
13	20551	15764.65104681949	2.571607824459
13	21104	16189.966067978266	1.820667742745
13	21491	16501.779470847417	0.10765637676
13	21518	16517.320008104112	1.372482176301
13	21715	16662.162219042435	1.451697779585
13	22222	17050.296786550633	0.293416510227
13	22231	17052.814160598964	2.452706492297
13	22962	17659.402397560185	1.998676224723
13	23733	18261.253975543657	0.805942915126
13	24069	18504.290987350806	2.337478961287
13	25391	19471.061568484468	0.971242003179
13	25770	19700.172683516449	2.594053636097
13	26373	20201.804597981149	1.310439095782
13	26888	20596.819252869563	0.003934249082
13	26963	20686.141964671713	1.585918695541
13	27900	21385.094837695314	1.840166990716
13	28114	21576.802946188399	2.033468061939
13	28193	21630.91742317611	0.456557441284
13	28987	22167.383231562322	1.675504017617
13	30282	23124.508558688918	0.156415322283
13	31283	23826.238096398325	2.10026665547
13	31416	23922.174243368959	1.055725603546
13	31879	24246.030046776138	1.399060745781
13	32305	24537.899504354569	0.291464212672
13	33006	25053.221745074549	0.547113060983
13	33139	25145.943343248865	0.250666423459
13	33853	25662.102996101406	1.865539321015
13	35077	26568.447838637274	0.255069554807
13	35329	26727.984248180833	2.040643499084
13	35352	26738.420463897865	0.749349883736
13	35361	26739.327995232936	0.367565386063
13	35441	26789.957268261519	0.039196563939
13	36572	27617.400726917137	1.925112640692
13	37275	28133.455261422685	1.778752810371
13	37922	28597.391379245021	2.903884534312
13	38605	29008.21833799379	2.163137740407
13	41692	31455.571399511735	1.857545538665
13	42727	32309.697296661936	1.296324245157
13	42794	32345.593777322364	1.661457086065
13	42932	32433.433789060981	1.58193883999
13	44691	33790.730002453282	1.839741307947
13	45956	34779.802372383285	1.077858271977
13	46206	34993.132828483539	2.023741174332
13	46319	35094.03216618046	1.248188992917
13	48588	36781.139111269698	0.270020697781
13	48658	36819.669514449295	2.102553786023
13	49059	37088.88395835061	2.905087343213
13	49644	37512.223904160352	0.190249008012
13	51205	38580.476709852404	2.361765562553
13	51333	38646.637511746761	2.058029859954
13	52137	39235.364962120851	2.802136134822
13	53352	40035.937973382611	1.134222579229
13	53755	40295.085692152832	0.439253167696
13	53800	40323.269425362709	0.99593128201
13	53907	40396.121162141239	0.312571312538
13	53915	40397.042405422794	0.606389968829
13	53922	40399.65310224547	1.964499330713
13	53971	40423.294016880638	2.153440594484
13	54996	41232.485782225259	1.94572531944
13	55615	41714.939103595979	0.590341154538
13	55973	41969.683494346233	2.635126616608
13	56920	42651.899267913904	2.86559233817
13	57341	42970.867601972824	0.057185576681
13	57460	43061.747122472585	0.011205768985
13	57939	43455.651972675383	2.438058502793
13	58107	43588.625528845139	1.204545026782
13	59876	44925.065552452721	1.403890064501
13	60226	45225.838263922267	0.049993435643
13	60530	45430.068686434702	0.727858467869
13	61188	45930.541317598054	2.949068167918
13	61957	46475.337954990727	2.089667195174
13	62154	46651.674699733991	2.86233854832
13	62544	46933.849137581592	0.789377194847
13	63144	47384.897706797758	0.404138713993
13	63434	47631.289709728284	0.472288622303
13	64038	48049.588820155387	1.238522266858
13	64086	48069.312816271014	2.753763170508
13	65573	49184.91819327763	2.432207138005
14	1711	1316.225493033229	1
14	1714	1316.951079460331	0
14	15566	11919.277239357482	1
14	15567	11919.929270650035	0
14	23731	18260.926813678463	1
14	23732	18261.150118344922	0
14	35351	26738.021659259372	1
14	35360	26739.310174741216	0
14	44687	33789.844428473236	1
14	44689	33790.412572418144	0
14	51325	38644.67613181496	1
14	51332	38646.324332109455	0
14	54990	41230.542610804565	1
14	54992	41230.692498581562	0
14	59873	44923.885459519975	1
14	59874	44924.315330891899	0
15	1714	1316.951079460331	0.725586427102
15	15567	11919.929270650035	0.652031292553
15	23732	18261.150118344922	0.223304666459
15	35360	26739.310174741216	1.288515481844
15	44689	33790.412572418144	0.568143944908
15	51332	38646.324332109455	1.648200294495
15	54992	41230.692498581562	0.149887776997
15	59874	44924.315330891899	0.429871371924
16	51328	38644.71419872796	1
16	51330	38645.508453830546	0
17	51330	38645.508453830546	0.794255102586

