version 2
run Debugging_quick-0-20211221-23:02:24-12483
attr configname Debugging_quick
attr datetime 20211221-23:02:24
attr experiment Debugging_quick
attr inifile omnetpp.ini
attr iterationvars ""
attr iterationvarsf ""
attr measurement ""
attr network Network
attr processid 12483
attr repetition 0
attr replication #0
attr resultdir results
attr runnumber 0
attr seedset 0
param **.percentage_quick_tills 0.6
param **.quick_checkout_threshold 3
param **.number_of_tills 10
param *.externalWorld.arrival_mean 30
param *.externalWorld.service_distribution 0
param *.externalWorld.service_mean 1
param *.externalWorld.service_std_deviation 1
param **.logging true
param **.quick_tills[*].is_quick true
param **.standard_tills[*].is_quick false

vector 0 Network.supermarket.quick_tills[0] number_of_jobs_stat:vector ETV
attr source number_of_jobs
vector 1 Network.supermarket.quick_tills[0] response_time_stat:vector ETV
attr source response_time
vector 2 Network.supermarket.standard_tills[0] number_of_jobs_stat:vector ETV
attr source number_of_jobs
vector 3 Network.supermarket.standard_tills[0] response_time_stat:vector ETV
attr source response_time
vector 4 Network.supermarket.quick_tills[1] number_of_jobs_stat:vector ETV
attr source number_of_jobs
vector 5 Network.supermarket.quick_tills[1] response_time_stat:vector ETV
attr source response_time
vector 6 Network.supermarket.quick_tills[2] number_of_jobs_stat:vector ETV
attr source number_of_jobs
vector 7 Network.supermarket.quick_tills[2] response_time_stat:vector ETV
attr source response_time
vector 8 Network.supermarket.standard_tills[1] number_of_jobs_stat:vector ETV
attr source number_of_jobs
vector 9 Network.supermarket.standard_tills[1] response_time_stat:vector ETV
attr source response_time
0	3	23.876235136973	1
0	4	24.415840963485	0
0	11	88.510969532913	1
0	12	89.785094771073	0
0	15	144.299095895153	1
0	16	146.9955737331	0
0	19	171.995789839277	1
0	20	171.9959042269	0
0	23	230.542149915811	1
0	24	230.679258496404	0
0	27	254.158184115269	1
0	28	254.518196863125	0
0	35	327.05856034146	1
0	36	327.217269938686	0
0	39	356.368753133261	1
0	40	356.638057090937	0
0	43	387.513532153177	1
0	44	387.61041602568	0
0	47	402.067377064826	1
0	48	402.5725200755	0
0	51	419.332952971315	1
0	52	419.539067605279	0
0	55	429.927727145441	1
0	56	430.418604303227	0
0	59	496.633459806531	1
0	60	497.057436285338	0
0	63	498.384999879323	1
0	64	499.492893225169	0
0	67	597.832368277171	1
0	68	598.337820809643	0
0	71	607.383052502425	1
0	72	610.124748518097	0
0	75	621.891115650878	1
0	76	622.665075421154	0
0	79	641.374506098404	1
0	80	643.247329765275	0
0	83	688.441389627094	1
0	84	688.98472900572	0
0	87	738.607725636843	1
0	88	738.983544829501	0
0	91	761.187949036227	1
0	92	762.343828746835	0
0	95	780.80442605286	1
0	96	781.547915743538	0
0	99	805.987411639867	1
0	100	806.21613604646	0
0	103	820.953571910344	1
0	104	821.539575374855	0
0	107	898.901194485813	1
0	108	901.00589178209	0
0	111	953.152272414061	1
0	112	953.413088264	0
0	115	955.362833078013	1
0	116	955.39060270563	0
0	119	967.710172965291	1
0	120	968.474631217742	0
0	123	970.44500374902	1
0	124	971.55508406757	0
0	127	1001.783378998263	1
0	132	1004.236345478484	0
0	135	1016.173590767891	1
0	136	1016.784613978899	0
0	139	1069.798220671051	1
0	140	1070.616227982431	0
0	143	1164.303318531329	1
0	144	1164.866663762671	0
0	147	1209.47684629045	1
0	148	1209.628119208122	0
0	151	1214.013771900399	1
0	152	1216.812750511682	0
0	155	1275.223199638656	1
0	156	1275.443972855541	0
0	159	1336.449966116008	1
0	160	1337.956798865001	0
0	163	1451.806622190263	1
0	164	1453.419789881522	0
0	167	1471.057897370606	1
0	168	1472.316574581781	0
0	175	1567.635146329229	1
0	176	1569.258467688408	0
0	179	1586.20303011803	1
0	180	1586.579068740445	0
0	183	1608.251962753724	1
0	184	1608.349355992849	0
0	187	1653.748041973429	1
0	188	1654.926745475973	0
0	191	1687.826210224736	1
0	192	1688.556337929871	0
0	195	1691.602442507878	1
0	196	1693.693059430837	0
0	199	1729.859273574587	1
0	200	1731.861904051663	0
0	203	1760.502229805063	1
0	204	1762.752285674277	0
0	207	1786.671865656327	1
0	208	1788.438816874919	0
0	211	1791.313756071328	1
0	212	1791.402635599919	0
0	215	1814.438795825347	1
0	216	1816.208422235969	0
0	219	1901.271410164959	1
0	220	1901.311248044114	0
0	223	1943.91235056777	1
0	224	1944.231248116252	0
0	227	1966.047169320447	1
0	228	1966.233294609405	0
0	231	1969.405554139426	1
0	232	1969.466624757589	0
0	235	1985.472525746262	1
0	236	1987.577428730892	0
0	239	2004.723366807196	1
0	240	2005.83363083813	0
0	243	2013.941777371772	1
0	244	2014.045302723928	0
0	247	2020.127875832686	1
0	248	2021.026978914098	0
0	251	2064.775520605236	1
0	252	2065.322159297323	0
0	255	2104.834226143954	1
0	256	2105.947913771721	0
0	263	2130.428153561542	1
0	264	2130.958821207603	0
0	267	2155.638194729908	1
0	268	2156.399974752463	0
0	271	2159.996535548674	1
0	272	2160.21662239339	0
0	275	2160.565592624707	1
0	276	2161.742849215626	0
0	279	2172.318716945009	1
0	280	2172.660685761482	0
0	283	2201.160145116982	1
0	284	2201.539234591387	0
0	287	2206.024239800361	1
0	288	2206.177531004718	0
0	291	2234.43414011561	1
0	292	2235.594098983931	0
0	295	2241.977398077854	1
0	296	2243.506706236542	0
0	299	2270.763837398901	1
0	300	2272.5633811279	0
0	303	2285.42054887814	1
0	304	2285.952494032595	0
0	307	2371.757999516471	1
0	308	2371.77645709447	0
0	311	2441.625400742897	1
0	312	2441.660169542959	0
0	315	2475.979569383899	1
0	316	2477.366441161256	0
0	319	2493.911951688451	1
0	320	2494.890197570044	0
0	327	2535.762344044889	1
0	328	2536.843025234901	0
0	331	2552.998316247126	1
0	332	2554.377300008269	0
0	335	2622.788848097956	1
0	336	2623.143375775329	0
0	339	2658.672082081668	1
0	340	2659.00120299473	0
0	343	2661.808918854924	1
0	344	2662.39975225763	0
0	347	2663.672377568916	1
0	348	2665.229599440544	0
0	351	2768.678788102554	1
0	352	2768.929976958086	0
0	355	2801.646162129082	1
0	356	2801.755113542174	0
0	359	2833.41118607371	1
0	360	2833.487380716769	0
0	363	2866.729109444326	1
0	364	2867.32312380531	0
0	367	2872.351891424862	1
0	368	2872.985333982752	0
0	371	2879.438092607343	1
0	372	2881.830553223867	0
0	375	2892.740213465961	1
0	376	2892.841329954651	0
0	379	2896.881074118815	1
0	380	2897.228667770329	0
0	383	2938.552354812545	1
0	384	2940.889222612463	0
0	387	2949.921213741025	1
0	388	2950.260575628942	0
0	391	2978.003060534167	1
0	392	2978.13031506615	0
0	395	2991.566122340904	1
0	396	2991.705417246868	0
0	399	3003.359499060027	1
0	400	3004.103517272587	0
0	403	3028.692332865857	1
0	404	3028.711889820913	0
0	407	3029.867827558249	1
0	408	3029.955154990972	0
0	411	3047.187556882444	1
0	412	3048.323358803568	0
0	415	3077.363687037441	1
0	416	3079.850932432162	0
0	419	3210.998592422723	1
0	420	3211.236377782921	0
0	423	3306.786991684332	1
0	424	3309.199931742449	0
0	427	3310.016044929014	1
0	428	3310.324673737355	0
0	431	3341.750837329581	1
0	432	3342.105985027319	0
0	435	3348.779882892848	1
0	436	3349.456316841386	0
0	439	3379.020460255452	1
0	440	3379.898466105756	0
0	443	3384.29786661822	1
0	444	3384.352705711944	0
0	447	3545.100877125516	1
0	448	3545.935385191726	0
0	451	3576.86315857834	1
0	452	3577.716750621324	0
0	455	3603.020634187112	1
0	456	3603.97239231233	0
0	459	3611.783050185128	1
0	460	3611.941727763486	0
0	467	3646.673237927361	1
0	468	3647.563143668031	0
0	471	3665.986667975437	1
0	472	3666.289096891909	0
0	475	3674.394978229807	1
0	476	3675.598145896874	0
0	479	3703.700900451928	1
0	480	3703.963584815507	0
0	483	3708.894724136313	1
0	484	3709.00268183333	0
0	487	3721.269761033988	1
0	488	3722.032147886935	0
0	491	3724.778423327762	1
0	492	3725.312954361146	0
0	495	3758.473472373761	1
0	496	3761.46796808401	0
0	499	3790.515638288247	1
0	500	3791.701117026993	0
0	503	3801.962313589473	1
0	504	3802.641675413164	0
0	507	3806.423681667036	1
0	508	3806.958423118256	0
0	511	3851.622741665211	1
0	512	3852.400576760712	0
0	515	3858.18915956043	1
0	516	3858.240403865313	0
0	519	3947.804856315991	1
0	520	3949.255092500362	0
0	523	3961.6052750482	1
0	524	3962.372922542556	0
0	527	3994.193356474548	1
0	528	3994.239762494327	0
0	531	4045.803306206045	1
0	536	4046.893339347563	0
0	539	4049.277590004719	1
0	540	4050.000967774675	0
0	543	4078.530648029408	1
0	544	4080.10280739821	0
0	547	4133.125215607939	1
0	548	4136.018296686862	0
0	551	4166.719646580557	1
0	552	4166.749901025604	0
0	555	4169.750689839826	1
0	556	4170.633920717948	0
0	559	4276.958341010158	1
0	560	4279.104995337045	0
0	563	4389.429284797693	1
0	564	4391.766481137811	0
0	567	4452.58892382146	1
0	568	4453.367167540618	0
0	571	4471.559021713334	1
0	572	4471.706912513604	0
0	575	4492.936529513331	1
0	576	4493.530700846216	0
0	579	4605.79434804845	1
0	580	4605.944329830849	0
0	583	4607.514155841163	1
0	584	4609.741038727127	0
0	587	4635.368510748205	1
0	588	4637.015605308456	0
0	591	4653.366917347436	1
0	592	4653.841064501513	0
0	595	4693.694275512006	1
0	596	4694.201236668961	0
0	599	4694.299979356391	1
0	600	4695.073089419613	0
0	603	4695.499268328139	1
0	604	4695.680016156557	0
0	607	4712.985619994148	1
0	608	4714.042032007719	0
0	611	4722.957927223059	1
0	612	4725.582214273192	0
0	615	4839.705030908418	1
0	616	4840.153290303865	0
0	619	4843.546733867754	1
0	620	4843.974085537643	0
0	623	4856.909317725347	1
0	624	4857.7556360439	0
0	627	4867.444600406786	1
0	628	4868.834148465744	0
0	631	4887.113988937695	1
0	632	4888.12964839041	0
0	635	4890.905648030455	1
0	636	4892.200267857952	0
0	639	4925.911853826914	1
0	640	4926.046889070661	0
0	643	4937.392882292767	1
0	644	4939.541083231064	0
0	647	5001.119998202817	1
0	648	5002.291841368735	0
0	651	5017.166529475524	1
0	652	5018.143824198852	0
0	655	5092.28388296808	1
0	656	5093.327295381049	0
0	659	5094.272805012546	1
0	660	5095.662876245921	0
0	663	5101.604668455	1
0	664	5102.041529949484	0
0	667	5136.980354266956	1
0	668	5137.409443754047	0
0	671	5161.965659748941	1
0	672	5163.406338734419	0
0	675	5187.048585708049	1
0	676	5187.363197682103	0
0	679	5247.145801383265	1
0	680	5247.586683924511	0
0	683	5256.3982465862	1
0	684	5258.660517481241	0
0	687	5277.735684702715	1
0	688	5279.133195130278	0
0	691	5299.958453216126	1
0	692	5300.517228940021	0
0	695	5374.525923925431	1
0	696	5376.657432357191	0
0	703	5453.694568416741	1
0	704	5453.706306230459	0
0	707	5479.431437648968	1
0	708	5480.520420940479	0
0	711	5482.034552119155	1
0	712	5482.723924571813	0
0	715	5561.512229979446	1
0	716	5562.484286412796	0
0	719	5571.272442445317	1
0	720	5571.349098904735	0
0	723	5582.779248868275	1
0	724	5582.901129503758	0
0	727	5583.061271388197	1
0	728	5584.607506705418	0
0	731	5616.086648690922	1
0	732	5619.072217980187	0
0	735	5671.506478220977	1
0	736	5671.572689956573	0
0	739	5675.7463996278	1
0	740	5676.344076883426	0
0	743	5706.999819253184	1
0	744	5707.438805514478	0
0	747	5744.797833556453	1
0	748	5745.661507188061	0
0	751	5800.036307701065	1
0	752	5802.88081266897	0
0	755	5810.285932711848	1
0	756	5810.810412470696	0
0	759	5819.51146442472	1
0	760	5819.989183001992	0
0	763	5825.581977581737	1
0	764	5825.852510185179	0
0	767	5840.797981279434	1
0	768	5842.237339204861	0
0	771	5867.291852538212	1
0	772	5869.628817053353	0
0	775	5891.435774532254	1
0	780	5892.912409422135	0
0	783	5897.452715855667	1
0	784	5897.811336262951	0
0	787	5950.424948028059	1
0	788	5950.427822480107	0
0	791	5964.276874909394	1
0	796	5965.758531682394	0
0	799	5969.16831631108	1
0	800	5969.33428804459	0
0	803	6003.147340570255	1
0	804	6003.542823024445	0
0	807	6028.439831534707	1
0	808	6029.304084837467	0
0	811	6037.881481360346	1
0	812	6038.63026410387	0
0	815	6074.376740963444	1
0	816	6074.385789776224	0
0	819	6114.239477175953	1
0	820	6116.410526198586	0
0	823	6124.44987932301	1
0	824	6125.684457470439	0
0	827	6222.704174654453	1
0	828	6223.14620483137	0
0	831	6239.741299258861	1
0	832	6240.377387329004	0
0	835	6248.321928434103	1
0	836	6250.713728917934	0
0	839	6290.652660712934	1
0	840	6292.099098236354	0
0	843	6316.404449747803	1
0	844	6317.380915513265	0
0	847	6331.534763945438	1
0	848	6332.164734817296	0
0	851	6358.432490069014	1
0	852	6358.448437801632	0
0	855	6426.34449734484	1
0	856	6426.657840600035	0
0	859	6451.821121691773	1
0	860	6454.472374363386	0
0	863	6482.380883592338	1
0	864	6484.162846739286	0
0	867	6489.953483379072	1
0	868	6491.127563842062	0
0	871	6556.598690333296	1
0	872	6557.400146680642	0
0	879	6682.355378945812	1
0	880	6682.428037271248	0
0	883	6700.134099769378	1
0	884	6700.323253223301	0
0	887	6718.025481599264	1
0	888	6718.665040699138	0
0	891	6774.229277994979	1
0	892	6774.376775895269	0
0	895	6889.51947549229	1
0	896	6890.877240035136	0
0	899	6925.586632509685	1
0	900	6928.283675486167	0
0	903	6929.292431930549	1
0	904	6929.505570791191	0
0	907	6939.883035928774	1
0	908	6941.076458459104	0
0	911	6983.5875926857	1
0	912	6984.211795143322	0
0	915	7034.015258822078	1
0	916	7034.083537848663	0
0	919	7049.936933720574	1
0	920	7050.198769769955	0
0	923	7065.087496153214	1
0	924	7066.49588501749	0
0	927	7098.845956658526	1
0	928	7099.555736472704	0
0	931	7162.730938540567	1
0	932	7164.132859130519	0
0	935	7171.353252822667	1
0	936	7171.587164528351	0
0	939	7197.46932761246	1
0	940	7200.033596231648	0
0	943	7208.741492884664	1
0	944	7208.792054074199	0
0	947	7272.786406384161	1
0	948	7274.02955239321	0
0	951	7373.717519975695	1
0	952	7374.449120864471	0
0	955	7409.099007985034	1
0	956	7409.231706538643	0
0	959	7435.734850298136	1
0	960	7435.923928659171	0
0	963	7474.492128362156	1
0	964	7474.51220876272	0
0	967	7506.827174886249	1
0	968	7507.331874791016	0
0	971	7527.701158713263	1
0	972	7527.727719331413	0
0	975	7550.55719185214	1
0	976	7550.670769713818	0
0	979	7644.321242581887	1
0	980	7644.349957424148	0
0	983	7652.18295983215	1
0	984	7652.895922607602	0
0	987	7683.166870151512	1
0	988	7683.449513035188	0
0	991	7698.23619409934	1
0	992	7698.343929914252	0
0	995	7714.778073803367	1
0	996	7716.744386326028	0
0	999	7743.711680768183	1
0	1000	7744.052366836243	0
0	1003	7771.68376718038	1
0	1004	7772.457758032532	0
0	1007	7791.006908430059	1
0	1008	7791.270559524595	0
0	1011	7791.5883018705	1
0	1012	7792.393100364221	0
0	1019	7821.409949815518	1
0	1020	7823.255305607887	0
0	1023	7859.181255333434	1
0	1024	7859.507427181367	0
0	1027	7891.560861293103	1
0	1028	7891.6934483513	0
0	1031	7901.750803270574	1
0	1032	7902.016883717488	0
0	1035	7912.028792011517	1
0	1036	7912.356162943864	0
0	1039	7926.537862609199	1
0	1040	7926.63388512703	0
0	1043	7955.40911428233	1
0	1044	7956.290422278	0
0	1047	7996.898490478433	1
0	1048	7997.742615578997	0
0	1055	8076.920750729164	1
0	1056	8077.461909345476	0
0	1059	8081.2879700826	1
0	1060	8082.111294788632	0
0	1063	8084.544383037446	1
0	1064	8085.003000915853	0
0	1067	8095.171107004809	1
0	1068	8095.18993034763	0
0	1071	8098.078789642115	1
0	1072	8099.755409414971	0
0	1075	8123.395443819841	1
0	1076	8125.008050111707	0
0	1079	8136.506284233059	1
0	1080	8136.848436573352	0
0	1083	8163.318156582224	1
0	1084	8163.583391518531	0
0	1087	8187.394716154981	1
0	1088	8188.658409247227	0
0	1091	8213.017108224272	1
0	1095	8214.662718495497	0
0	1099	8245.81349233645	1
0	1100	8246.304287655474	0
0	1103	8349.989556714924	1
0	1104	8350.546268913778	0
0	1107	8381.665044974716	1
0	1108	8383.65678229915	0
0	1111	8393.278947739188	1
0	1112	8394.672762182684	0
0	1115	8410.217262772812	1
0	1116	8411.592109467417	0
0	1119	8417.719707622143	1
0	1120	8418.277996402543	0
0	1123	8485.778727402918	1
0	1124	8486.591199340942	0
0	1127	8490.347536160552	1
0	1128	8490.906821219816	0
0	1131	8504.092722679298	1
0	1132	8504.239432211609	0
0	1135	8507.162341124875	1
0	1136	8507.611608366096	0
0	1139	8524.336187667726	1
0	1140	8524.397975516648	0
0	1143	8648.470480483038	1
0	1144	8648.636934774159	0
0	1147	8715.217920199798	1
0	1148	8715.347281386786	0
0	1151	8724.264897596498	1
0	1152	8727.032543768181	0
0	1155	8773.491824934302	1
0	1156	8773.537399741757	0
0	1159	8796.59413072069	1
0	1160	8799.075960586685	0
0	1163	8833.104715580815	1
0	1164	8833.218437761605	0
0	1167	8850.92692053053	1
0	1168	8852.449990226664	0
0	1171	8854.095299839394	1
0	1172	8854.35110778385	0
0	1175	8857.241754907405	1
0	1176	8858.199724622843	0
0	1179	8932.820218809903	1
0	1180	8934.068453491651	0
0	1183	8945.850588488217	1
0	1184	8945.887251887214	0
0	1187	8983.428814235568	1
0	1188	8984.249151765499	0
0	1191	9002.432692767249	1
0	1192	9003.494945465324	0
0	1195	9205.394408365362	1
0	1196	9205.407043839795	0
0	1199	9260.586391917686	1
0	1200	9260.725389207205	0
0	1203	9265.442494519055	1
0	1204	9265.517190353441	0
0	1207	9335.947813211576	1
0	1208	9336.296462549706	0
0	1214	9397.873565111217	1
0	1215	9398.321126079323	0
0	1219	9403.193332365571	1
0	1220	9404.032894635825	0
0	1223	9424.49087018229	1
0	1224	9424.811964482294	0
0	1227	9453.169862899961	1
0	1228	9453.397131498966	0
0	1231	9458.64602095644	1
0	1232	9458.722868521772	0
0	1235	9462.611532244881	1
0	1236	9462.902320130978	0
0	1239	9507.906235913162	1
0	1240	9508.071272311503	0
0	1243	9564.424102510744	1
0	1244	9565.786000331566	0
0	1247	9624.483697376523	1
0	1248	9624.659979443311	0
0	1251	9673.885270416328	1
0	1252	9674.102717076	0
0	1255	9689.785356760429	1
0	1256	9692.57752304558	0
0	1259	9715.041785612389	1
0	1260	9715.912526972532	0
0	1263	9719.565515918204	1
0	1264	9720.029352833349	0
0	1270	9736.265220387413	1
0	1271	9736.316532718264	0
0	1274	9738.4154819168	1
0	1276	9740.291680942191	0
0	1279	9859.910887080939	1
0	1280	9861.261642719153	0
0	1283	9895.774044069405	1
0	1284	9896.048280623905	0
0	1287	9909.792221061703	1
0	1288	9910.147012413358	0
0	1291	9927.921193217131	1
0	1292	9928.601956818128	0
0	1295	9944.266907061471	1
0	1296	9944.495513160588	0
0	1299	9982.676933175842	1
0	1300	9983.644400661521	0
0	1307	10044.617491827506	1
0	1308	10046.383471844648	0
0	1311	10058.264847171258	1
0	1312	10060.499971875866	0
0	1315	10169.563664928371	1
0	1316	10169.734205823945	0
0	1319	10170.066697908136	1
0	1320	10171.491104601736	0
0	1323	10228.164015032873	1
0	1324	10228.182765935885	0
0	1327	10236.033894307858	1
0	1332	10237.086923183824	0
0	1335	10279.821213725065	1
0	1336	10279.861706088435	0
0	1339	10293.208798340636	1
0	1340	10293.875001993092	0
0	1343	10379.74715090371	1
0	1344	10381.428495008405	0
0	1347	10419.026101824393	1
0	1348	10419.958342735414	0
0	1351	10460.614842385028	1
0	1352	10462.052738035947	0
0	1355	10466.263691641602	1
0	1356	10467.104994197651	0
0	1359	10478.702067921374	1
0	1360	10479.309555833592	0
0	1363	10500.786000920971	1
0	1364	10501.167792089345	0
0	1367	10520.959816425979	1
0	1368	10521.718732636546	0
0	1375	10535.055285692814	1
0	1376	10535.171073791379	0
0	1379	10541.749461935838	1
0	1380	10542.616356077327	0
0	1383	10547.684347159611	1
0	1384	10547.842209587017	0
0	1387	10548.24521127224	1
0	1388	10548.723474802043	0
0	1391	10553.870779808322	1
0	1392	10554.581660784497	0
0	1395	10601.223161471501	1
0	1396	10602.023778542982	0
0	1399	10619.901081790854	1
0	1400	10620.143982071588	0
0	1403	10627.506252945156	1
0	1404	10628.874057032279	0
0	1407	10689.78718475844	1
0	1408	10692.269419414363	0
0	1411	10702.496897799142	1
0	1412	10703.603238555437	0
0	1415	10789.033226451346	1
0	1416	10789.653406695188	0
0	1419	10867.999792327809	1
0	1420	10868.307567669087	0
0	1423	10896.11395385951	1
0	1424	10896.255825391365	0
0	1427	10932.677857959811	1
0	1428	10932.746495358085	0
0	1431	10959.916778779548	1
0	1436	10961.361726559776	0
0	1439	11006.812419706926	1
0	1440	11007.051608414573	0
0	1443	11012.211139953481	1
0	1444	11013.204629027767	0
0	1447	11033.007133039608	1
0	1448	11033.084293209419	0
0	1451	11062.151597782456	1
0	1452	11062.387540408886	0
0	1455	11063.70208495632	1
0	1456	11063.80236865239	0
0	1459	11089.52979405674	1
0	1460	11090.927171846164	0
0	1463	11125.558921252999	1
0	1464	11125.735903701717	0
0	1467	11133.708963363268	1
0	1468	11133.777816761364	0
0	1471	11280.082950003073	1
0	1472	11280.523726818238	0
0	1475	11361.723397680462	1
0	1476	11362.024928677524	0
0	1479	11371.052431829556	1
0	1480	11371.15259234604	0
0	1483	11399.607323055821	1
0	1484	11401.240820929045	0
0	1487	11433.705217913538	1
0	1488	11433.859842213457	0
0	1491	11456.717607550708	1
0	1492	11456.932577448537	0
0	1495	11516.632766575408	1
0	1496	11519.306602736709	0
0	1499	11543.374123882708	1
0	1500	11544.394278699635	0
0	1503	11585.064435795974	1
0	1504	11585.92383644212	0
0	1507	11624.357996936824	1
0	1508	11625.101743561159	0
0	1511	11724.496026952437	1
0	1512	11726.326393442003	0
0	1515	11735.71262182953	1
0	1516	11738.300331838635	0
0	1519	11759.952023431509	1
0	1520	11760.928308663136	0
0	1523	11775.187977112109	1
0	1524	11775.493547259223	0
0	1527	11782.350563297545	1
0	1528	11782.742891326722	0
0	1531	11789.4163005001	1
0	1532	11789.484537680856	0
0	1535	11796.964258893487	1
0	1536	11798.266254902142	0
0	1539	11803.145220347978	1
0	1540	11804.473494759057	0
0	1543	11810.550998411942	1
0	1544	11811.290685203178	0
0	1547	11897.223266168907	1
0	1548	11898.702456954682	0
0	1551	11922.512629431339	1
0	1552	11923.847514061682	0
0	1555	11962.873052428357	1
0	1556	11965.257019592535	0
0	1559	11980.923422024089	1
0	1560	11981.104232059158	0
0	1563	12001.150759113176	1
0	1564	12003.838595996878	0
0	1567	12106.585119529276	1
0	1568	12107.746857893368	0
0	1571	12114.325502447475	1
0	1572	12114.339552255915	0
0	1575	12148.559639533256	1
0	1576	12149.116179034589	0
0	1579	12157.364869090954	1
0	1580	12157.631915009447	0
0	1583	12160.039497790811	1
0	1584	12161.343502358588	0
0	1587	12161.832926678273	1
0	1588	12162.792068426914	0
0	1591	12163.575097541752	1
0	1592	12164.987060091272	0
0	1595	12180.672024500946	1
0	1596	12183.648274222298	0
0	1599	12200.745436211643	1
0	1600	12201.252288534343	0
0	1603	12211.955530043477	1
0	1604	12214.95479091267	0
0	1607	12275.815632879422	1
0	1608	12278.408571716915	0
0	1611	12311.571375989068	1
0	1612	12312.384778936804	0
0	1615	12423.972214403827	1
0	1616	12424.199755507364	0
0	1619	12438.204703113815	1
0	1620	12440.676966296488	0
0	1623	12467.047890260951	1
0	1624	12467.055925165274	0
0	1627	12472.98692232097	1
0	1628	12474.012933633958	0
0	1631	12496.446193947238	1
0	1636	12499.054634739113	0
0	1639	12555.046648653019	1
0	1640	12555.39551352741	0
0	1643	12557.135178785227	1
0	1644	12557.800692647253	0
0	1647	12597.993130514395	1
0	1648	12598.175794040709	0
0	1651	12632.119285680614	1
0	1652	12633.046411120256	0
0	1655	12651.656207638142	1
0	1656	12651.680604460309	0
0	1659	12669.793644188199	1
0	1660	12670.591147764947	0
0	1663	12703.704310565517	1
0	1664	12704.305793489271	0
0	1667	12726.77790459841	1
0	1668	12729.384049510379	0
0	1671	12754.799714576568	1
0	1672	12756.451740333907	0
0	1675	12822.894915050091	1
0	1676	12825.404935660124	0
0	1679	12860.521013152821	1
0	1680	12860.980475503285	0
0	1683	12999.710588944033	1
0	1684	13000.212910189377	0
0	1687	13018.728489525856	1
0	1688	13019.668066766721	0
0	1695	13044.328207599259	1
0	1696	13044.363676990648	0
0	1699	13076.965340607689	1
0	1700	13077.156447441066	0
0	1703	13148.032885732799	1
0	1704	13148.470735458199	0
0	1707	13157.201032787228	1
0	1708	13157.336084787373	0
0	1711	13161.628913773965	1
0	1712	13161.710687946696	0
0	1715	13162.25493033227	1
0	1716	13162.40004761769	0
0	1719	13170.065472678687	1
0	1720	13171.246983643319	0
0	1723	13212.676976346242	1
0	1724	13213.381512474911	0
0	1727	13276.683874970489	1
0	1728	13276.696669134166	0
0	1731	13288.254505791846	1
0	1732	13288.276265637545	0
0	1735	13358.689818634727	1
0	1736	13359.305163055874	0
0	1739	13373.198970259416	1
0	1740	13376.154909114755	0
0	1747	13430.959530378602	1
0	1748	13432.714661737645	0
0	1751	13442.736721224228	1
0	1752	13443.143464980259	0
0	1755	13496.081021329249	1
0	1756	13496.096154236063	0
0	1759	13518.082051524288	1
0	1760	13518.720868535106	0
0	1763	13547.827180311204	1
0	1768	13548.021003268716	0
0	1771	13609.653478094484	1
0	1772	13610.057040373192	0
0	1775	13620.86637690898	1
0	1776	13621.565694909549	0
0	1779	13630.453616555165	1
0	1780	13630.594025077165	0
0	1783	13647.078741426608	1
0	1784	13649.24758143276	0
0	1787	13695.070324681809	1
0	1788	13696.728378899735	0
0	1791	13760.043235108048	1
0	1792	13760.8076148164	0
0	1795	13766.203668170119	1
0	1796	13766.626386240492	0
0	1799	13800.375397690304	1
0	1800	13800.705954926974	0
0	1803	13891.970937778105	1
0	1804	13894.786141546028	0
0	1807	13910.242276159371	1
0	1808	13910.680137431806	0
0	1811	13945.135674662135	1
0	1812	13946.007982430993	0
0	1815	13964.95076705461	1
0	1816	13967.216829770239	0
0	1819	13972.232321864764	1
0	1820	13974.342899045523	0
0	1823	14018.872209999028	1
0	1824	14019.148608156791	0
0	1827	14107.206618321727	1
0	1828	14109.069236693058	0
0	1831	14115.02582220302	1
0	1832	14115.049996145389	0
0	1835	14154.401061991989	1
0	1836	14156.759078529495	0
0	1843	14226.872005364845	1
0	1844	14227.487969794241	0
0	1847	14238.164885910488	1
0	1848	14238.72694850838	0
0	1851	14245.362591493576	1
0	1852	14246.153013778857	0
0	1855	14340.075457736045	1
0	1856	14340.500546909676	0
0	1859	14361.982287693217	1
0	1860	14363.584767808605	0
0	1863	14381.127945861003	1
0	1867	14381.988488862438	0
0	1871	14419.208401555255	1
0	1872	14419.343678651652	0
0	1875	14426.184152106799	1
0	1876	14426.857993886196	0
0	1879	14431.190391343781	1
0	1880	14434.186990135687	0
0	1883	14447.775542463335	1
0	1884	14448.689611435985	0
0	1887	14487.104713508147	1
0	1888	14487.481024017553	0
0	1891	14501.165007787455	1
0	1892	14501.1806629666	0
0	1899	14551.026056177845	1
0	1900	14551.926181789734	0
0	1903	14558.283645520978	1
0	1904	14558.530049043949	0
0	1907	14568.040126060267	1
0	1908	14568.60871561114	0
0	1911	14574.230865868415	1
0	1912	14574.51681637407	0
0	1915	14600.744435549402	1
0	1916	14602.391370390402	0
0	1919	14650.186720744231	1
0	1920	14652.180364841639	0
0	1923	14710.007896782541	1
0	1924	14710.386590668497	0
0	1927	14751.248295396597	1
0	1928	14751.516525657149	0
0	1931	14754.999273094301	1
0	1932	14757.233159934982	0
0	1935	14788.70308808074	1
0	1936	14790.391028531137	0
0	1939	14810.55880336277	1
0	1940	14811.421215036176	0
0	1943	14820.284776767364	1
0	1944	14821.069813904612	0
0	1947	14824.53403781122	1
0	1948	14824.737391241842	0
0	1951	14830.301881036485	1
0	1952	14830.514159168435	0
0	1955	14868.156261241103	1
0	1956	14869.707096499673	0
0	1959	14904.726241596542	1
0	1960	14905.615014286893	0
0	1963	14919.854639594086	1
0	1964	14920.80146989976	0
0	1967	14938.515747166522	1
0	1968	14938.56508111369	0
0	1971	14963.517094385899	1
0	1972	14963.572511196111	0
0	1975	15018.574996474085	1
0	1976	15018.590996778746	0
0	1979	15024.648759385028	1
0	1980	15025.193820548241	0
0	1983	15031.526089141237	1
0	1984	15031.577078287225	0
0	1987	15036.220362252769	1
0	1988	15037.356890878082	0
0	1991	15041.628591240118	1
0	1992	15042.138442824048	0
0	1995	15061.714808965951	1
0	1996	15064.223210816181	0
0	1999	15065.71502766413	1
0	2000	15066.575183754201	0
0	2003	15078.898689378914	1
0	2004	15078.899091482831	0
0	2007	15117.311419998279	1
0	2008	15119.33272437472	0
0	2014	15202.858287197544	1
0	2015	15204.400824865554	0
0	2019	15246.344930490372	1
0	2020	15246.81746582858	0
0	2023	15287.575220922984	1
0	2024	15287.869193066297	0
0	2030	15331.919144144	1
0	2031	15332.004979748787	0
0	2035	15402.133902963722	1
0	2036	15403.062054003638	0
0	2039	15409.489845742991	1
0	2040	15409.661531259134	0
0	2043	15412.103103240745	1
0	2044	15413.868293671729	0
0	2047	15453.60259722528	1
0	2048	15453.837677841772	0
0	2051	15477.704350105294	1
0	2052	15478.559337640659	0
0	2055	15517.1731378542	1
0	2056	15517.713362755109	0
0	2059	15543.519590215748	1
0	2060	15544.508656506161	0
0	2063	15544.920222525083	1
0	2064	15545.347457920301	0
0	2067	15642.97511454977	1
0	2068	15643.311393593106	0
0	2071	15650.014790027464	1
0	2072	15651.218376340719	0
0	2075	15660.380377538726	1
0	2076	15661.264281765118	0
0	2079	15670.525018984059	1
0	2080	15671.720724377052	0
0	2083	15678.790857095208	1
0	2084	15680.177238516426	0
0	2087	15712.718411470869	1
0	2088	15712.796074562658	0
0	2091	15715.889026694009	1
0	2095	15717.843167488226	0
0	2099	15718.339395470256	1
0	2100	15719.746228035044	0
0	2103	15742.673626137094	1
0	2104	15744.23142006298	0
0	2107	15822.250381602708	1
0	2111	15823.447899448363	0
0	2115	15855.781164960468	1
0	2116	15857.779796826733	0
0	2119	15909.480853094902	1
0	2120	15909.485527314875	0
0	2123	15955.615714529199	1
0	2124	15956.005327450809	0
0	2127	16080.294847396093	1
0	2128	16080.601648823026	0
0	2131	16090.222143831377	1
0	2132	16091.333199593019	0
0	2135	16126.692858032132	1
0	2136	16127.322800026547	0
0	2139	16153.179274380845	1
0	2140	16153.778701617896	0
0	2143	16159.192540233416	1
0	2144	16159.638540180475	0
0	2147	16161.175300554218	1
0	2148	16161.656733652846	0
0	2151	16182.722694957461	1
0	2152	16182.997418202874	0
0	2155	16202.666927444008	1
0	2156	16203.195936307103	0
0	2159	16228.723899387982	1
0	2160	16228.74734073231	0
0	2163	16342.544612880615	1
0	2164	16343.057907525844	0
0	2167	16389.014963255265	1
0	2168	16389.773541315657	0
0	2171	16451.761660433963	1
0	2172	16452.143483165237	0
0	2175	16479.740016092029	1
0	2176	16479.879501998227	0
0	2179	16492.121912093834	1
0	2180	16493.094559889432	0
0	2183	16499.514386760217	1
0	2184	16500.338688637191	0
0	2187	16597.282016075757	1
0	2188	16597.844568906965	0
0	2191	16615.500394734341	1
0	2192	16615.684114226321	0
0	2199	16686.734371350879	1
0	2200	16687.280953274016	0
0	2203	16776.200391615057	1
0	2204	16777.332977180682	0
0	2207	16796.534451676708	1
0	2208	16797.688644039225	0
0	2211	16881.633657477973	1
0	2212	16881.855014985525	0
0	2215	16919.35076734509	1
0	2216	16919.670835325206	0
0	2219	16967.514530237125	1
0	2220	16968.070878141125	0
0	2223	16987.489804836234	1
0	2224	16987.499854896698	0
0	2227	17017.353714137234	1
0	2228	17017.774312537457	0
0	2231	17054.340128028157	1
0	2232	17054.588417989503	0
0	2235	17116.552971921159	1
0	2236	17118.150673015203	0
0	2239	17137.236008056598	1
0	2240	17137.268486021139	0
0	2243	17147.638607170261	1
0	2244	17149.758856431173	0
0	2247	17203.481556459723	1
0	2248	17206.21296020978	0
0	2251	17260.184607402612	1
0	2252	17262.526369496972	0
0	2255	17266.667493900437	1
0	2256	17268.191176314379	0
0	2259	17295.527851698139	1
0	2260	17296.614692982125	0
0	2263	17340.055126177641	1
0	2268	17340.784095347121	0
0	2271	17450.24460344544	1
0	2272	17450.261203227086	0
0	2275	17463.040677806535	1
0	2276	17463.331520472721	0
0	2279	17522.523144944636	1
0	2280	17522.878107389984	0
0	2283	17527.333167779233	1
0	2284	17529.263485733865	0
0	2287	17572.815235673984	1
0	2288	17573.593329903203	0
0	2291	17693.053725320215	1
0	2292	17693.803897230661	0
0	2295	17819.109508107646	1
0	2296	17821.074789662601	0
0	2299	17838.63342837842	1
0	2300	17840.253730513492	0
0	2303	17880.653699287234	1
0	2304	17880.858406711489	0
0	2307	17901.292003641064	1
0	2312	17902.141777780007	0
0	2315	17932.01930591934	1
0	2316	17933.340346508214	0
0	2319	17941.43924286124	1
0	2320	17941.484525097549	0
0	2323	17955.232982394514	1
0	2324	17955.964894580011	0
0	2327	17971.086999243568	1
0	2328	17971.673640934153	0
0	2331	17975.50375036296	1
0	2332	17976.977276843463	0
0	2335	17992.273980462689	1
0	2336	17992.293488260007	0
0	2339	18044.072981854956	1
0	2340	18044.914299622522	0
0	2343	18054.680879112845	1
0	2344	18054.750263543989	0
0	2347	18060.996877758968	1
0	2348	18061.623694042787	0
0	2351	18076.378317037859	1
0	2352	18078.04841573909	0
0	2355	18097.859676577668	1
0	2356	18098.279274446583	0
0	2359	18101.717083695955	1
0	2360	18102.728483815089	0
0	2363	18109.33742504646	1
0	2364	18109.408072154322	0
0	2367	18227.76642307323	1
0	2368	18229.248569656568	0
0	2371	18230.855473984807	1
0	2372	18231.330167275958	0
0	2375	18246.487838617349	1
0	2376	18247.710933566312	0
0	2379	18305.944548850616	1
0	2380	18306.027524109746	0
0	2383	18331.208637935735	1
0	2384	18331.480723488843	0
0	2391	18452.10666702672	1
0	2392	18452.152101666005	0
0	2395	18549.305556033745	1
0	2396	18549.505975807182	0
0	2399	18595.96438684438	1
0	2400	18596.294582468287	0
0	2403	18667.076014262801	1
0	2404	18668.746576229041	0
0	2407	18682.974861640961	1
0	2408	18684.978006334595	0
0	2411	18727.597754271151	1
0	2412	18729.676889071049	0
0	2415	18740.952234453342	1
0	2416	18741.028169197603	0
0	2419	18753.107720923615	1
0	2420	18754.273798405332	0
0	2423	18768.407445939097	1
0	2424	18769.487232243424	0
0	2427	18770.944830691954	1
0	2428	18771.787625665386	0
0	2431	18781.723647845737	1
0	2432	18781.931137781087	0
0	2435	18797.41267745541	1
0	2436	18797.588187982877	0
0	2439	18842.191642381181	1
0	2440	18842.930386622243	0
0	2443	18850.119756305253	1
0	2444	18850.748765086118	0
0	2447	18928.31691037488	1
0	2448	18930.659060572817	0
0	2451	18932.58067571666	1
0	2452	18933.00405846618	0
0	2455	18944.385748050341	1
0	2456	18945.030396037557	0
0	2459	18946.032969226874	1
0	2460	18946.287913030862	0
0	2463	19037.678762597088	1
0	2464	19039.556225603573	0
0	2467	19076.473198360961	1
0	2474	19077.370941821013	0
0	2479	19100.112104130935	1
0	2480	19100.262090218982	0
0	2483	19144.278228870744	1
0	2484	19146.758811503834	0
0	2487	19155.175495437798	1
0	2488	19155.952686537035	0
0	2491	19159.943490827483	1
0	2492	19162.34739490445	0
0	2495	19224.275054762883	1
0	2496	19224.904448696454	0
0	2499	19226.760922950438	1
0	2500	19227.058141413719	0
0	2503	19235.416304260881	1
0	2504	19235.663078458764	0
0	2507	19238.232540679359	1
0	2508	19238.350076461252	0
0	2511	19272.173903707492	1
0	2512	19272.755202444132	0
0	2515	19305.620526364702	1
0	2516	19305.834911797212	0
0	2519	19355.509499784929	1
0	2520	19356.163961362804	0
0	2523	19363.955220459058	1
0	2524	19364.647536326303	0
0	2527	19380.932056708104	1
0	2528	19381.337448277029	0
0	2531	19397.301788151124	1
0	2532	19398.605896889823	0
0	2535	19439.147860889018	1
0	2536	19439.156813524507	0
0	2539	19463.598410815907	1
0	2540	19463.831850237088	0
0	2543	19516.687005512204	1
0	2544	19517.391140701991	0
0	2547	19575.788732479977	1
0	2548	19576.073796062578	0
0	2551	19590.083089957913	1
0	2552	19591.201335562168	0
0	2555	19629.036459026054	1
0	2556	19630.944787446414	0
0	2559	19632.082481544298	1
0	2560	19632.139538068422	0
0	2563	19641.537282405772	1
0	2564	19642.074877698966	0
0	2567	19650.414338603214	1
0	2568	19650.585814738721	0
0	2571	19654.643375135666	1
0	2572	19655.602273489024	0
0	2575	19681.533251286282	1
0	2576	19682.462382191883	0
0	2579	19683.242247260289	1
0	2580	19683.50838461304	0
0	2583	19702.657488381582	1
0	2584	19703.042010031124	0
0	2587	19713.426327932882	1
0	2588	19713.533876684143	0
0	2591	19733.505414092463	1
0	2592	19735.71740116671	0
0	2595	19742.624560869329	1
0	2596	19743.349935854534	0
0	2599	19761.027733557094	1
0	2600	19762.59016156459	0
0	2603	19779.299667216803	1
0	2604	19779.948110638671	0
0	2607	19801.60716297009	1
0	2608	19801.852423328423	0
0	2611	19836.099404602584	1
0	2612	19836.265071598935	0
0	2615	19853.602117733643	1
0	2616	19853.82552256316	0
0	2619	19889.287005273691	1
0	2620	19890.25935386301	0
0	2623	19946.73227300297	1
0	2624	19947.873083441526	0
0	2627	19956.734373154233	1
0	2628	19957.519657816882	0
0	2631	19973.779487666503	1
0	2632	19973.949347394808	0
0	2635	19988.117027291837	1
0	2636	19989.178740832256	0
0	2639	20040.728466642542	1
0	2640	20041.442553522297	0
0	2643	20046.724132780163	1
0	2644	20046.880255198147	0
0	2651	20114.696739809871	1
0	2652	20116.089164200418	0
0	2655	20117.406857132321	1
0	2656	20117.563150664159	0
0	2659	20119.162694100716	1
0	2660	20119.413786018749	0
0	2663	20151.530501355704	1
0	2664	20151.580006788232	0
0	2667	20187.350902473561	1
0	2668	20188.083522185053	0
0	2671	20194.293531632216	1
0	2672	20196.586800256241	0
0	2675	20239.539988581027	1
0	2676	20241.078483664889	0
0	2679	20295.913541607329	1
0	2680	20297.169964805294	0
0	2683	20340.985925418652	1
0	2684	20341.008508943969	0
0	2687	20375.296644036253	1
0	2688	20375.668182958343	0
0	2691	20384.306396444824	1
0	2692	20384.698494978525	0
0	2695	20390.20025302173	1
0	2696	20390.699381108324	0
0	2699	20404.243446618775	1
0	2700	20406.30640381131	0
0	2703	20406.416019922212	1
0	2704	20406.500253774288	0
0	2707	20432.988839303108	1
0	2712	20434.851297730233	0
0	2715	20442.838417019696	1
0	2716	20443.611561526736	0
0	2719	20509.620936702952	1
0	2720	20509.62195049656	0
0	2723	20523.522637529152	1
0	2724	20525.537102679142	0
0	2727	20527.820228170606	1
0	2728	20528.800072522321	0
0	2731	20534.404272997421	1
0	2732	20537.39613259069	0
0	2735	20579.718121034142	1
0	2736	20579.941603900199	0
0	2739	20598.195699547667	1
0	2740	20599.946741310013	0
0	2743	20675.969157811169	1
0	2744	20676.950284680928	0
0	2747	20677.338299296035	1
0	2748	20679.263238983222	0
0	2751	20715.015103826245	1
0	2752	20715.402903636688	0
0	2755	20763.267639298821	1
0	2756	20763.371604569247	0
0	2759	20783.516168508417	1
0	2760	20783.564642862895	0
0	2763	20785.918534186737	1
0	2764	20786.972089938284	0
0	2767	20804.936497981482	1
0	2768	20806.221553415462	0
0	2771	20826.882858155463	1
0	2772	20828.098623514611	0
0	2775	20891.175849168356	1
0	2776	20892.599853707527	0
0	2779	20902.169387923334	1
0	2780	20903.111614132383	0
0	2783	20922.276344220612	1
0	2784	20922.797732602736	0
0	2787	20948.126368974469	1
0	2788	20949.73388504753	0
0	2791	20964.188499507272	1
0	2792	20965.407027823768	0
0	2795	21060.332764395624	1
0	2796	21060.367947342208	0
0	2799	21066.071645772578	1
0	2800	21066.951988480071	0
0	2803	21097.188998595662	1
0	2804	21098.659713057784	0
0	2810	21117.616338223121	1
0	2811	21118.932094346103	0
0	2815	21163.541790791421	1
0	2816	21163.9040217525	0
0	2819	21180.426546845936	1
0	2820	21180.727244444177	0
0	2823	21204.813497681502	1
0	2824	21205.19001880942	0
0	2827	21226.215026165527	1
0	2828	21226.512178672377	0
0	2831	21231.440880976754	1
0	2832	21231.697660960301	0
0	2835	21254.488481232777	1
0	2836	21255.488978140845	0
0	2839	21259.147048797925	1
0	2840	21260.262810987535	0
0	2843	21293.460910171489	1
0	2844	21293.88448445856	0
0	2847	21324.909583320173	1
0	2848	21326.418824112822	0
0	2851	21334.66470943483	1
0	2852	21336.257234564168	0
0	2855	21357.909980819949	1
0	2856	21358.628777560882	0
0	2859	21362.04857777783	1
0	2860	21362.63943235794	0
0	2863	21373.870304936239	1
0	2864	21374.825505255707	0
0	2867	21388.831074922339	1
0	2868	21390.357778751515	0
0	2871	21393.601435426323	1
0	2872	21393.648171926065	0
0	2879	21492.812281610213	1
0	2880	21493.403051831445	0
0	2883	21499.027837077749	1
0	2884	21499.38486685241	0
0	2891	21573.482639623221	1
0	2892	21573.636963789693	0
0	2895	21599.430782906098	1
0	2896	21599.876383219758	0
0	2899	21622.975893493846	1
0	2900	21625.291649300626	0
0	2903	21625.87981766309	1
0	2904	21626.687326085588	0
0	2907	21644.194303013021	1
0	2908	21644.97422751139	0
0	2911	21716.61479592826	1
0	2912	21717.144726915503	0
0	2923	21801.744082766417	1
0	2924	21802.756346004755	0
0	2927	21850.084042740033	1
0	2928	21850.311015919679	0
0	2939	21966.898064803975	1
0	2940	21967.687878856882	0
0	2943	21969.841650482841	1
0	2944	21970.918109864715	0
0	2947	22040.157739706798	1
0	2948	22040.905186654988	0
0	2951	22056.827507101545	1
0	2952	22058.483393434936	0
0	2955	22091.965417949956	1
0	2956	22092.110938529858	0
0	2959	22111.194624307872	1
0	2960	22111.807391997444	0
0	2963	22147.276037822752	1
0	2964	22147.715636670857	0
0	2967	22173.31513728329	1
0	2968	22175.498234598738	0
0	2971	22185.227565783904	1
0	2972	22185.254134186386	0
0	2975	22223.016800902616	1
0	2976	22223.780229641867	0
0	2979	22265.430300788799	1
0	2980	22265.605124741369	0
0	2983	22266.253563801706	1
0	2984	22267.114607750324	0
0	2987	22296.576638694681	1
0	2988	22297.945632330168	0
0	2991	22336.012301637206	1
0	2992	22338.50723798134	0
0	2995	22344.246207297314	1
0	2996	22344.277078644057	0
0	2999	22387.943013644585	1
0	3000	22388.32010491262	0
0	3003	22393.192865091131	1
0	3007	22393.649428402956	0
0	3011	22441.233981866872	1
0	3012	22443.216995692639	0
0	3015	22452.291470055193	1
0	3016	22453.927435939441	0
0	3019	22548.239119358294	1
0	3020	22549.418977669791	0
0	3023	22556.191912400499	1
0	3024	22556.845959888024	0
0	3027	22574.574275746414	1
0	3028	22575.748502520808	0
0	3031	22595.575044829877	1
0	3032	22596.243644525789	0
0	3035	22622.395086910279	1
0	3036	22622.604126388687	0
0	3039	22714.587343593837	1
0	3040	22716.428777008525	0
0	3043	22773.086650949239	1
0	3044	22773.669875736178	0
0	3047	22797.567207868183	1
0	3048	22798.378075044928	0
0	3051	22815.89893470675	1
0	3052	22816.770198082463	0
0	3055	22818.975491496855	1
0	3056	22819.290039640278	0
0	3063	22939.15409540064	1
0	3064	22939.821073425202	0
0	3067	22964.877148479054	1
0	3068	22965.105186772562	0
0	3071	23024.515332124373	1
0	3072	23024.838083187917	0
0	3075	23076.087411478028	1
0	3076	23076.372075311921	0
0	3079	23081.233570299212	1
0	3080	23081.488966515736	0
0	3083	23153.088963980895	1
0	3084	23153.39300998711	0
0	3087	23299.593933691251	1
0	3088	23300.634524029235	0
0	3091	23350.300982334005	1
0	3092	23351.687966579269	0
0	3095	23352.965953813641	1
0	3096	23355.505953544559	0
0	3099	23358.175650709893	1
0	3100	23358.786251241296	0
0	3103	23361.152296504408	1
0	3104	23361.376033683376	0
0	3107	23390.890681677188	1
0	3108	23390.949295844895	0
0	3111	23421.012216893536	1
0	3112	23423.131257050926	0
0	3115	23436.25880051512	1
0	3116	23436.969126896635	0
0	3119	23525.712190234908	1
0	3120	23526.339189633617	0
0	3123	23527.655161018601	1
0	3124	23527.893367653507	0
0	3127	23610.473294689099	1
0	3128	23611.764206585801	0
0	3131	23627.024403066812	1
0	3132	23628.626886437731	0
0	3135	23644.816850986567	1
0	3136	23645.177636253267	0
0	3139	23653.796702459119	1
0	3140	23654.149572343795	0
0	3143	23692.821825282917	1
0	3144	23693.493225259332	0
0	3147	23749.543699915859	1
0	3148	23749.571694137762	0
0	3151	23790.21525533136	1
0	3152	23790.443002373137	0
0	3155	23791.231410988633	1
0	3156	23792.13141618972	0
0	3159	23802.232565602455	1
0	3160	23802.325356842533	0
0	3163	23898.045421782925	1
0	3164	23899.902298703429	0
0	3167	23901.87262899684	1
0	3168	23902.053778808651	0
0	3171	23915.044938564473	1
0	3172	23915.524614620768	0
0	3175	23932.648002764873	1
0	3176	23933.34716104088	0
0	3179	23945.882647086762	1
0	3180	23947.268374854867	0
0	3183	23960.798925677041	1
0	3188	23962.348120250828	0
0	3191	23984.061767424042	1
0	3192	23986.401035867923	0
0	3195	23990.207335438439	1
0	3196	23990.985935520386	0
0	3199	24046.20654954386	1
0	3200	24046.45440094693	0
0	3207	24084.64823662046	1
0	3208	24085.988147398769	0
0	3211	24164.123884487365	1
0	3212	24165.753325617307	0
0	3215	24198.332250794937	1
0	3216	24198.630391223407	0
0	3219	24201.48023321479	1
0	3220	24201.513090210866	0
0	3223	24229.665292790685	1
0	3224	24230.495884714494	0
0	3227	24316.842880900354	1
0	3228	24318.078644564075	0
0	3231	24319.953005999615	1
0	3232	24320.095064656507	0
0	3235	24381.041831617774	1
0	3236	24381.667322920488	0
0	3239	24383.938069988604	1
0	3240	24384.403424718746	0
0	3243	24402.10108343781	1
0	3248	24405.048958293795	0
0	3251	24415.695838954178	1
0	3252	24415.946138843149	0
0	3255	24418.411063058627	1
0	3256	24419.115728765	0
0	3259	24426.35911118775	1
0	3260	24426.669819017523	0
0	3263	24434.480842909867	1
0	3264	24435.666343554449	0
0	3267	24463.074519057849	1
0	3268	24463.15950409096	0
0	3271	24517.96078373361	1
0	3272	24518.571389007179	0
0	3275	24518.969801361214	1
0	3276	24519.529500105783	0
0	3279	24541.137401959389	1
0	3280	24541.585682786061	0
0	3283	24541.609275672637	1
0	3284	24541.724707582801	0
0	3287	24563.198622603293	1
0	3288	24564.891482915736	0
0	3291	24579.998873803216	1
0	3292	24581.003413308324	0
0	3295	24611.479138781025	1
0	3296	24611.526032838675	0
0	3299	24613.59419723184	1
0	3300	24615.21856218433	0
0	3303	24637.19096998859	1
0	3304	24637.68171163403	0
0	3307	24645.899172442288	1
0	3311	24647.092536702499	0
0	3315	24654.387816493471	1
0	3316	24655.841154397761	0
0	3319	24680.423672590097	1
0	3320	24681.754464574595	0
0	3323	24689.182054741961	1
0	3324	24689.601295473562	0
0	3327	24733.414721485471	1
0	3328	24735.818641300268	0
0	3331	24737.628992994121	1
0	3332	24739.498831751766	0
0	3335	24751.788035627279	1
0	3336	24752.11294265154	0
0	3339	24752.151312979127	1
0	3340	24752.711274182077	0
0	3343	24772.411989084301	1
0	3344	24774.114465896763	0
0	3347	24776.09343930381	1
0	3348	24777.83076664343	0
0	3351	24896.020343605411	1
0	3352	24897.088375844771	0
0	3355	24924.928124494087	1
0	3356	24925.91295148414	0
0	3359	24933.345402279404	1
0	3360	24933.35674670205	0
0	3363	25043.132265833256	1
0	3364	25043.287076954431	0
0	3367	25057.199905651441	1
0	3368	25058.529266694037	0
0	3371	25196.408305529934	1
0	3372	25196.489935304682	0
0	3375	25197.810352581997	1
0	3376	25198.735418320436	0
0	3379	25213.591276454801	1
0	3380	25213.609779218839	0
0	3383	25224.726128078833	1
0	3384	25225.86562219599	0
0	3387	25230.062430814524	1
0	3388	25230.131486180773	0
0	3391	25283.490471061268	1
0	3392	25284.367444421961	0
0	3395	25314.036998425479	1
0	3396	25314.650565429613	0
0	3399	25363.39250123771	1
0	3400	25364.244693339511	0
0	3403	25383.610804564272	1
0	3404	25383.731100420006	0
0	3407	25414.262354986558	1
0	3408	25414.710233152246	0
0	3411	25550.697070542355	1
0	3412	25550.725247142714	0
0	3418	25566.493933073291	1
0	3420	25567.899864909366	0
0	3427	25623.61395748821	1
0	3428	25624.116237196349	0
0	3431	25672.173789480798	1
0	3432	25672.663400773937	0
0	3435	25682.380906069202	1
0	3436	25683.755028784258	0
0	3439	25684.57245578384	1
0	3440	25686.381442833457	0
0	3443	25692.861611571666	1
0	3444	25693.4638305587	0
0	3451	25759.967588694269	1
0	3452	25760.56558342601	0
0	3455	25774.34396952877	1
0	3456	25775.224297216739	0
0	3459	25782.81737088752	1
0	3460	25783.46759748937	0
0	3463	25812.96537015931	1
0	3464	25814.076861060274	0
0	3467	25845.851146989591	1
0	3468	25846.493608521359	0
0	3471	25924.320374962256	1
0	3472	25924.410580392267	0
0	3475	25946.171702153238	1
0	3476	25947.797083157675	0
0	3483	26020.437922922431	1
0	3484	26020.9527440441	0
0	3487	26041.093339563754	1
0	3488	26042.605198000789	0
0	3491	26065.362730417737	1
0	3492	26067.713310613976	0
0	3499	26092.262917656643	1
0	3500	26092.300682914534	0
0	3503	26144.136506787124	1
0	3504	26145.196927032671	0
0	3507	26180.920473154131	1
0	3508	26182.407137588667	0
0	3511	26221.128752013519	1
0	3512	26221.166898361547	0
0	3515	26237.205715873704	1
0	3516	26237.339980537062	0
0	3519	26254.985438411803	1
0	3520	26256.255157079888	0
0	3523	26268.399635489725	1
0	3524	26269.363315484899	0
0	3527	26372.518987905788	1
0	3528	26373.684112185068	0
0	3531	26425.441609671446	1
0	3532	26425.452028012812	0
0	3535	26438.978773626167	1
0	3536	26439.917343425761	0
0	3539	26516.673557991084	1
0	3540	26517.447107060403	0
0	3543	26531.87525440807	1
0	3544	26531.98754027688	0
0	3547	26533.288232539734	1
0	3548	26533.291255064477	0
0	3551	26573.548824775212	1
0	3552	26573.878280394079	0
0	3559	26599.377449717271	1
0	3560	26600.874517556184	0
0	3563	26612.232677842666	1
0	3564	26614.590797145003	0
0	3567	26695.307012327805	1
0	3568	26697.515800240221	0
0	3571	26745.923560990531	1
0	3572	26747.513034228838	0
0	3575	26754.844766827767	1
0	3576	26755.559340539282	0
0	3579	26881.835240717727	1
0	3580	26884.303577230559	0
0	3583	26896.261587446818	1
0	3584	26897.519340613839	0
0	3587	27000.447258623896	1
0	3588	27000.604565550889	0
0	3591	27036.281956929135	1
0	3592	27036.362927180054	0
0	3595	27106.88199997133	1
0	3596	27107.053654700177	0
0	3599	27175.09321497196	1
0	3600	27176.048517441703	0
0	3603	27185.646236534857	1
0	3604	27185.854037967767	0
0	3607	27189.517391630386	1
0	3608	27191.336340612888	0
0	3611	27334.408999069465	1
0	3612	27335.383172914946	0
0	3615	27342.703180565765	1
0	3616	27343.893925886866	0
0	3619	27351.310453427273	1
0	3620	27353.672889359472	0
0	3623	27359.083821103743	1
0	3624	27359.893635485688	0
0	3631	27382.613644399195	1
0	3632	27384.588291002423	0
0	3635	27473.062692564776	1
0	3636	27474.304444959783	0
0	3639	27539.699118060772	1
0	3640	27541.066871420529	0
0	3643	27547.673614531442	1
0	3644	27548.989638384652	0
0	3647	27560.973646411481	1
0	3648	27561.28091819878	0
0	3651	27596.086718311893	1
0	3652	27598.486841275742	0
0	3658	27612.48614357854	1
0	3659	27612.998426479441	0
0	3663	27687.05507610895	1
0	3664	27687.907762910454	0
0	3667	27726.413968541493	1
0	3668	27726.701451537795	0
0	3671	27730.038910429371	1
0	3672	27731.05795112654	0
0	3675	27794.0799822656	1
0	3676	27794.270453139465	0
0	3679	27823.998949990604	1
0	3680	27824.671705715976	0
0	3683	27833.540586346331	1
0	3684	27833.667802917341	0
0	3687	27837.815674715847	1
0	3688	27840.017281616593	0
0	3691	27852.111149345025	1
0	3692	27853.785715724398	0
0	3695	27866.175020094198	1
0	3696	27868.250551417849	0
0	3699	27880.241364763034	1
0	3700	27880.400117111986	0
0	3703	27892.006203451711	1
0	3704	27893.888697456099	0
0	3707	27933.449975847155	1
0	3708	27933.756905271359	0
0	3711	27967.643838047091	1
0	3712	27968.687177954492	0
0	3715	27975.790511797547	1
0	3716	27977.500262842196	0
0	3719	28023.411228688322	1
0	3720	28024.292100778773	0
0	3723	28029.068170415856	1
0	3724	28029.440085550871	0
0	3727	28050.099535695636	1
0	3728	28050.430240501202	0
0	3739	28089.428036853737	1
0	3740	28089.738153648834	0
0	3743	28154.564813294364	1
0	3744	28156.172558605272	0
0	3747	28209.390601328865	1
0	3748	28210.153427361827	0
0	3751	28222.40054699008	1
0	3752	28223.096971995755	0
0	3755	28230.544645982963	1
0	3756	28230.922204631981	0
0	3759	28270.771697720698	1
0	3760	28272.251491367037	0
0	3763	28291.709824185636	1
0	3764	28294.126393940404	0
0	3767	28316.024618601101	1
0	3768	28316.157327521061	0
0	3771	28401.747379035582	1
0	3772	28402.203963731286	0
0	3775	28408.498653851442	1
0	3776	28411.037187400891	0
0	3779	28438.652123308615	1
0	3780	28439.220564503994	0
0	3783	28462.508789347878	1
0	3784	28462.55466218992	0
0	3787	28523.096324444456	1
0	3788	28523.814364287613	0
0	3791	28545.093084604813	1
0	3792	28545.352639072654	0
0	3795	28629.600436503754	1
0	3796	28632.395458632985	0
0	3799	28642.467791576902	1
0	3800	28644.316034741246	0
0	3803	28684.148546785355	1
0	3804	28684.179984826374	0
0	3807	28684.896389657186	1
0	3808	28685.261055895297	0
0	3811	28720.973109998457	1
0	3812	28722.234989719211	0
0	3815	28725.807387363223	1
0	3816	28726.469659239816	0
0	3819	28829.035708790786	1
0	3820	28831.252290063627	0
0	3823	28833.277502172769	1
0	3824	28834.327477416159	0
0	3827	28988.831384863755	1
0	3828	28988.859051299169	0
0	3831	29025.752950394683	1
0	3832	29025.908368531316	0
0	3835	29043.787589786201	1
0	3836	29044.525841557676	0
0	3839	29080.827986067806	1
0	3840	29081.19297870808	0
0	3843	29083.03317739037	1
0	3844	29083.427687435445	0
0	3847	29111.416229627995	1
0	3848	29113.59589344032	0
0	3851	29121.809229452845	1
0	3852	29123.771701227298	0
0	3855	29155.242976404327	1
0	3856	29157.421945942989	0
0	3859	29160.201766773949	1
0	3860	29161.019381513355	0
0	3863	29178.001683821768	1
0	3864	29178.725737032206	0
0	3867	29194.213764749825	1
0	3868	29195.385683077082	0
0	3871	29229.943208351724	1
0	3872	29230.253937377428	0
0	3875	29234.16556301458	1
0	3876	29234.768601701915	0
0	3879	29248.425753103826	1
0	3880	29250.548882994297	0
0	3883	29276.224911112731	1
0	3884	29277.214603638162	0
0	3887	29279.386795010092	1
0	3888	29280.075916917634	0
0	3891	29293.864051464914	1
0	3892	29294.206678199677	0
0	3895	29390.623533976411	1
0	3896	29391.029157993465	0
0	3899	29458.347837699102	1
0	3900	29458.357230249377	0
0	3903	29460.603591974019	1
0	3904	29462.854501627841	0
0	3907	29563.67229374835	1
0	3912	29564.532100033484	0
0	3915	29588.005245375008	1
0	3916	29588.378404311435	0
0	3919	29704.732548087237	1
0	3920	29706.445152577052	0
0	3923	29714.372757173308	1
0	3924	29715.101049985929	0
0	3927	29719.194658390332	1
0	3928	29721.020002676395	0
0	3931	29746.106248813502	1
0	3932	29748.588030563137	0
0	3935	29755.086838901744	1
0	3936	29755.826650178332	0
0	3939	29823.208142123644	1
0	3940	29823.764095504966	0
0	3943	29830.490505244433	1
0	3944	29830.667168319977	0
0	3947	29846.153844376761	1
0	3948	29846.438060509663	0
0	3951	29872.17260494168	1
0	3952	29875.148084021077	0
0	3955	29896.266708099317	1
0	3956	29896.730799265342	0
0	3959	30007.848957426298	1
0	3960	30007.910246912041	0
0	3963	30017.358278822868	1
0	3964	30020.044486028043	0
0	3967	30026.923510275255	1
0	3968	30029.099458169633	0
0	3971	30045.157053198753	1
0	3972	30047.919586710497	0
0	3975	30150.428959728866	1
0	3976	30151.283084022096	0
0	3979	30165.839528126789	1
0	3984	30167.699544711081	0
0	3987	30175.181437074657	1
0	3988	30177.709750495605	0
0	3991	30240.870838511401	1
0	3992	30241.895007538587	0
0	3995	30262.019318152672	1
0	3996	30262.277959734864	0
0	3999	30299.011979969186	1
0	4000	30299.148724521891	0
0	4003	30310.160452614022	1
0	4004	30310.252000314161	0
0	4007	30319.922954128889	1
0	4008	30320.445014078311	0
0	4011	30333.928884435788	1
0	4012	30334.186761438021	0
0	4015	30401.503670537926	1
0	4016	30401.944364076634	0
0	4019	30423.835018379858	1
0	4020	30424.212445192819	0
0	4023	30424.641436965163	1
0	4024	30424.805316865121	0
0	4027	30466.301755181178	1
0	4028	30466.493843327453	0
0	4031	30495.777605462848	1
0	4032	30497.71883801241	0
0	4035	30507.949395778855	1
0	4036	30508.883581086636	0
0	4039	30519.943253953178	1
0	4040	30520.050847676942	0
0	4043	30597.316647876758	1
0	4044	30597.850377834886	0
0	4051	30759.248772357919	1
0	4052	30760.943504091281	0
0	4055	30764.787248545113	1
0	4056	30764.969746699705	0
0	4059	30766.284716617902	1
0	4060	30766.489443792017	0
0	4063	30835.810498494869	1
0	4064	30836.389254049208	0
0	4067	30844.587016530606	1
0	4068	30845.797264083799	0
0	4071	30856.598462474388	1
0	4072	30856.773311685208	0
0	4075	30874.323519086525	1
0	4076	30874.598423960855	0
0	4079	30940.33339869985	1
0	4080	30942.447611974192	0
0	4083	30943.64887499791	1
0	4084	30944.50270535252	0
0	4087	30965.199850054247	1
0	4088	30965.850800846912	0
0	4091	30978.053080917972	1
0	4092	30978.482307500259	0
0	4095	30999.492106539311	1
0	4096	31000.001522154081	0
0	4099	31039.915571250037	1
0	4100	31039.974222498196	0
0	4103	31054.588823568639	1
0	4104	31054.911055937531	0
0	4107	31088.820123596239	1
0	4108	31089.07994886147	0
0	4111	31111.476478129054	1
0	4112	31111.52950053317	0
0	4115	31140.692835873451	1
0	4116	31141.783785281742	0
0	4119	31227.546364384082	1
0	4120	31227.695693761923	0
0	4123	31264.737306802576	1
0	4124	31265.424969229845	0
0	4127	31331.746502335537	1
0	4128	31333.254460076886	0
0	4131	31338.626017484637	1
0	4132	31339.357938733363	0
0	4135	31372.539733434067	1
0	4136	31372.735813229803	0
0	4139	31385.082483202376	1
0	4140	31385.274515936415	0
0	4143	31415.651078634666	1
0	4144	31416.526799878369	0
0	4147	31449.483891641862	1
0	4148	31450.329527859781	0
0	4151	31473.330076723831	1
0	4152	31475.96288710737	0
0	4159	31546.299071644908	1
0	4160	31546.412984038953	0
0	4163	31569.835772552448	1
0	4164	31571.533141059154	0
0	4167	31574.650295773193	1
0	4168	31575.252952221653	0
0	4171	31584.618114480554	1
0	4172	31585.520434827258	0
0	4175	31642.819560776909	1
0	4176	31642.989154670687	0
0	4183	31673.981020181774	1
0	4184	31674.343728756639	0
0	4187	31711.152115403122	1
0	4188	31713.470449705053	0
0	4191	31721.837088850029	1
0	4196	31723.28153765177	0
0	4199	31740.572341900908	1
0	4200	31741.55830952944	0
0	4203	31754.561252694035	1
0	4204	31754.594216401285	0
0	4207	31755.306248926428	1
0	4208	31756.547907396485	0
0	4211	31777.991236360136	1
0	4212	31778.089485663102	0
0	4215	31802.489017025575	1
0	4216	31802.704019519302	0
0	4219	31879.063311831999	1
0	4220	31879.130918219129	0
0	4223	31892.505950883261	1
0	4224	31892.576835965596	0
0	4227	31895.318612511558	1
0	4228	31895.919605666686	0
0	4231	31916.27604269393	1
0	4232	31918.39344362054	0
0	4235	31931.899408640049	1
0	4236	31932.370108243665	0
0	4239	31936.903281383722	1
0	4240	31937.28872169937	0
0	4247	31954.26974490825	1
0	4248	31955.197298847069	0
0	4251	31966.854124612324	1
0	4252	31967.038027366041	0
0	4262	32067.303449396476	1
0	4263	32067.84094778896	0
0	4267	32077.119760836269	1
0	4268	32078.578517828916	0
0	4271	32181.201575999566	1
0	4272	32181.419597145806	0
0	4275	32188.263751994703	1
0	4276	32190.002375564245	0
0	4279	32223.485856098535	1
0	4280	32223.667412124198	0
0	4283	32227.174733105172	1
0	4284	32228.176080268574	0
0	4287	32230.31610130805	1
0	4288	32231.296416238829	0
0	4291	32256.137542533467	1
0	4292	32257.242372423576	0
0	4295	32266.402783281947	1
0	4296	32266.460723533391	0
0	4299	32302.052658090571	1
0	4300	32302.700606953979	0
0	4303	32325.288161728619	1
0	4304	32325.686481661416	0
0	4307	32358.726491818592	1
0	4308	32358.739715218384	0
0	4315	32486.559449176345	1
0	4316	32486.994867564246	0
0	4319	32501.332690467656	1
0	4324	32502.809335793966	0
0	4327	32509.141442695252	1
0	4328	32509.376320367992	0
0	4331	32540.396776639881	1
0	4332	32541.706447822222	0
0	4335	32558.598148917208	1
0	4336	32559.47830592976	0
0	4339	32586.116302824568	1
0	4340	32586.748596405416	0
0	4343	32693.471354599685	1
0	4344	32694.050794713942	0
0	4347	32720.127215969451	1
0	4348	32720.738607910798	0
0	4351	32773.967409389365	1
0	4352	32774.918172974133	0
0	4355	32872.686874297149	1
0	4356	32872.834983127689	0
0	4359	32946.566202379326	1
0	4360	32946.951822857441	0
0	4363	32947.076671091212	1
0	4364	32947.087619542438	0
0	4367	32980.090727005543	1
0	4368	32980.209397663283	0
0	4371	33015.860200232115	1
0	4372	33017.280168295698	0
0	4375	33033.290459895899	1
0	4376	33033.665902191923	0
0	4379	33083.698931898341	1
0	4380	33084.0845250149	0
0	4391	33171.126626918177	1
0	4392	33171.307878059147	0
0	4395	33183.319012920601	1
0	4396	33183.567774618881	0
0	4399	33184.20496725552	1
0	4400	33184.826575635409	0
0	4403	33231.144663776445	1
0	4404	33231.558223595562	0
0	4407	33306.741324591842	1
0	4408	33307.750600403626	0
0	4411	33309.810378022129	1
0	4412	33310.55249726772	0
0	4415	33333.266910715258	1
0	4416	33333.304703934574	0
0	4419	33350.77071588441	1
0	4420	33352.176770029851	0
0	4423	33492.562571790245	1
0	4424	33492.854629118931	0
0	4427	33514.57867080092	1
0	4428	33515.202026615993	0
0	4431	33529.070261528819	1
0	4432	33531.112119538893	0
0	4435	33564.59109361923	1
0	4436	33564.724422227613	0
0	4439	33613.891690675406	1
0	4440	33614.042084883586	0
0	4443	33616.75022516158	1
0	4444	33617.12492062268	0
0	4447	33635.29179647578	1
0	4448	33635.310032706579	0
0	4451	33643.045573937308	1
0	4452	33643.747800549416	0
0	4455	33695.649017485602	1
0	4456	33696.819278140996	0
0	4459	33711.493337207255	1
0	4460	33712.613732026607	0
0	4463	33734.73174929794	1
0	4464	33736.780295266962	0
0	4467	33764.020509986996	1
0	4468	33765.49083815226	0
0	4471	33829.501926665561	1
0	4472	33829.941219967588	0
0	4475	33894.902540080235	1
0	4476	33895.042188179411	0
0	4479	33958.537173785609	1
0	4480	33959.042678772615	0
0	4483	33987.472166638409	1
0	4484	33987.49534839617	0
0	4487	33999.410618477874	1
0	4488	34001.397748673026	0
0	4491	34003.708079591435	1
0	4492	34004.440138751471	0
0	4495	34019.254915034547	1
0	4496	34021.946951749392	0
0	4499	34137.498675573339	1
0	4500	34139.159347361389	0
0	4503	34161.099169037133	1
0	4504	34161.698386809794	0
0	4507	34222.720743553042	1
0	4508	34222.733427418194	0
0	4515	34272.840319615825	1
0	4516	34273.956494759942	0
0	4519	34287.150252144156	1
0	4520	34288.347372220862	0
0	4523	34363.815783644079	1
0	4524	34364.976723216748	0
0	4527	34387.250847343704	1
0	4528	34388.651688936189	0
0	4531	34410.636898208624	1
0	4532	34411.233366607625	0
0	4535	34414.503257589878	1
0	4536	34415.36547299383	0
0	4539	34491.541236450944	1
0	4540	34494.003857513882	0
0	4543	34525.789702156572	1
0	4544	34525.934272717264	0
0	4547	34578.930301736179	1
0	4548	34579.964141074967	0
0	4551	34589.0835357207	1
0	4552	34590.732229320017	0
0	4555	34692.613839601481	1
0	4556	34692.619093215846	0
0	4559	34693.931656625279	1
0	4560	34694.042217986137	0
0	4563	34769.622180465924	1
0	4564	34770.284659642054	0
0	4567	34773.324464611143	1
0	4568	34773.733202002338	0
0	4571	34774.42543671958	1
0	4572	34776.38668861751	0
0	4575	34777.80133511094	1
0	4576	34778.632284345314	0
0	4579	34783.564202395399	1
0	4580	34785.338512407738	0
0	4583	34794.979530852261	1
0	4584	34795.953950226163	0
0	4587	34809.765893903268	1
0	4588	34810.813302353593	0
0	4591	34818.258066978691	1
0	4592	34818.870742531409	0
0	4595	34909.444014682708	1
0	4596	34910.563947912888	0
0	4599	34934.263792390812	1
0	4600	34935.939665263155	0
0	4603	34944.965279971014	1
0	4604	34945.829214480063	0
0	4607	35016.012361561089	1
0	4608	35016.297727950065	0
0	4611	35021.259669363964	1
0	4612	35021.580039622735	0
0	4615	35047.292323652139	1
0	4616	35047.841830733868	0
0	4619	35112.519310866167	1
0	4620	35113.341496654546	0
0	4623	35139.853685108275	1
0	4624	35141.491580739731	0
0	4627	35157.592768675359	1
0	4628	35158.706686852283	0
0	4631	35165.748743832588	1
0	4632	35166.543089198711	0
0	4635	35237.287204129512	1
0	4636	35237.721731939135	0
0	4639	35263.375664954624	1
0	4640	35263.660054518716	0
0	4643	35268.614498849023	1
0	4644	35270.551249679073	0
0	4647	35273.344660433898	1
0	4648	35273.355490662759	0
0	4651	35305.807716968417	1
0	4652	35306.024676543927	0
0	4655	35318.075242845813	1
0	4656	35318.358827305645	0
0	4659	35335.483930485309	1
0	4660	35336.859565113512	0
0	4663	35364.951076017591	1
0	4664	35365.238584323143	0
0	4667	35367.338180670384	1
0	4668	35367.680111622828	0
0	4671	35380.788059868738	1
0	4672	35381.744556531134	0
0	4675	35416.555627131209	1
0	4676	35418.041959694093	0
0	4679	35489.127168955965	1
0	4680	35489.430890312558	0
0	4683	35497.653761261816	1
0	4684	35498.211918442096	0
0	4687	35560.88717201392	1
0	4688	35561.630089235133	0
0	4691	35562.099819343518	1
0	4692	35563.74850969921	0
0	4695	35579.182902759639	1
0	4696	35579.661350358855	0
0	4699	35581.037387219085	1
0	4700	35581.473623235858	0
0	4703	35602.907588860517	1
0	4704	35602.944345889295	0
0	4707	35604.79829218824	1
0	4708	35605.03870046121	0
0	4711	35624.110036363806	1
0	4712	35625.965416311339	0
0	4715	35695.602084559552	1
0	4716	35697.060023213874	0
0	4719	35701.71564602581	1
0	4720	35702.313421911575	0
0	4723	35742.114464681898	1
0	4724	35742.483562103024	0
0	4731	35827.73146535674	1
0	4732	35829.052890270443	0
0	4735	35833.962563943094	1
0	4736	35834.021727324048	0
0	4739	35867.45812114982	1
0	4740	35868.822548948462	0
0	4743	35905.137989113025	1
0	4744	35905.316027165545	0
0	4747	35927.721078674192	1
0	4748	35927.971332279049	0
0	4751	35949.928644416641	1
0	4752	35950.130264137248	0
0	4755	35960.820059048458	1
0	4756	35961.061000216952	0
0	4759	35972.414884509767	1
0	4760	35973.194227207235	0
0	4763	36158.292188071426	1
0	4767	36158.514017394282	0
0	4771	36171.87671981407	1
0	4772	36172.030475297548	0
0	4775	36199.163840960256	1
0	4776	36199.843614502413	0
0	4779	36218.246944591242	1
0	4780	36218.720285942668	0
0	4783	36249.662712255987	1
0	4784	36250.986756930938	0
0	4787	36263.918995419549	1
0	4788	36263.945984251366	0
0	4791	36264.07508940377	1
0	4792	36264.279356517612	0
0	4795	36380.734431086864	1
0	4796	36380.851999559797	0
0	4799	36486.153795775381	1
0	4800	36488.688279439108	0
0	4803	36491.912532833914	1
0	4804	36493.035122369105	0
0	4807	36524.619900427747	1
0	4808	36525.6988953139	0
0	4811	36536.544272825444	1
0	4812	36538.152594047164	0
0	4815	36546.952139320085	1
0	4816	36548.123565438451	0
0	4819	36581.167873568993	1
0	4820	36581.25183091828	0
0	4823	36587.875845319037	1
0	4824	36588.059871925649	0
0	4827	36589.834653188416	1
0	4828	36590.098231191301	0
0	4831	36667.824850548774	1
0	4832	36668.982428393141	0
0	4835	36695.862263039242	1
0	4836	36696.094984385528	0
0	4839	36706.961638431767	1
0	4840	36707.882450268573	0
0	4843	36726.443960235599	1
0	4844	36728.936901805436	0
0	4847	36741.930063883706	1
0	4848	36742.994162126836	0
0	4851	36751.952316375489	1
0	4852	36753.194733863031	0
0	4855	36782.029188625337	1
0	4856	36782.758365234284	0
0	4859	36790.19972541598	1
0	4860	36791.006903065022	0
0	4863	36856.596542362025	1
0	4864	36856.668558930103	0
0	4867	36878.274609488082	1
0	4868	36878.637759615926	0
0	4871	36895.275668283575	1
0	4872	36895.917812708527	0
0	4875	36909.038207362968	1
0	4876	36910.839132991464	0
0	4879	36988.062149241261	1
0	4880	36988.725240237755	0
0	4883	37006.355014427003	1
0	4884	37006.926485639947	0
0	4887	37033.255589524568	1
0	4888	37034.217658382827	0
0	4891	37045.606606860749	1
0	4892	37048.176499265314	0
0	4895	37062.56426530009	1
0	4896	37062.670427533749	0
0	4899	37168.258805536972	1
0	4900	37169.48315727657	0
0	4903	37195.210876530076	1
0	4904	37195.239553309059	0
0	4907	37199.507574674511	1
0	4908	37200.157722351413	0
0	4911	37212.639758357908	1
0	4912	37212.710147176962	0
0	4915	37215.694227617219	1
0	4916	37215.82914294301	0
0	4919	37247.796702306058	1
0	4920	37248.26812007704	0
0	4927	37292.109962303496	1
0	4928	37293.592038457782	0
0	4931	37318.933138947249	1
0	4932	37319.107294315362	0
0	4935	37370.664895511301	1
0	4936	37371.187676721454	0
0	4939	37402.956609293831	1
0	4940	37403.183010798408	0
0	4943	37418.420035794052	1
0	4944	37421.152705996178	0
0	4947	37433.607954806514	1
0	4948	37434.172149130665	0
0	4951	37434.756618739687	1
0	4952	37435.517353944474	0
0	4955	37651.760672323646	1
0	4956	37652.278525758581	0
0	4959	37777.023980450474	1
0	4960	37777.615312029193	0
0	4963	37790.034964562492	1
0	4964	37790.193668988441	0
0	4967	37807.868945063444	1
0	4968	37808.267661882908	0
0	4971	37846.209008938427	1
0	4972	37847.515822923195	0
0	4975	37929.451647585837	1
0	4976	37929.87334145555	0
0	4979	37959.900416336932	1
0	4980	37960.109589272901	0
0	4983	37993.346421959043	1
0	4984	37993.395049287885	0
0	4987	38043.654463948792	1
0	4988	38044.686995401766	0
0	4991	38052.960347646721	1
0	4992	38053.555656058404	0
0	4995	38165.134801987911	1
0	4996	38166.538470185772	0
0	4999	38190.042621390911	1
0	5000	38192.378051115943	0
0	5003	38256.204645504985	1
0	5004	38256.44129534556	0
0	5007	38350.554572086084	1
0	5008	38352.686811194697	0
0	5011	38393.943799250755	1
0	5012	38394.862478455349	0
0	5015	38397.557547283828	1
0	5016	38399.233957333789	0
0	5019	38433.50208891916	1
0	5020	38434.884105913636	0
0	5027	38455.296698787636	1
0	5028	38456.313414208555	0
0	5031	38457.865322610965	1
0	5032	38458.231399648797	0
0	5035	38462.659316023992	1
0	5036	38463.568450676417	0
0	5039	38506.138972108262	1
0	5047	38508.773775832476	0
0	5051	38517.045568443147	1
0	5052	38518.360869426438	0
0	5055	38521.474524940086	1
0	5056	38521.921019341476	0
0	5059	38538.458411490954	1
0	5060	38541.364457447618	0
0	5063	38547.517061595629	1
0	5064	38547.596123830379	0
0	5067	38569.661163872082	1
0	5068	38570.215525910533	0
0	5071	38631.118658569997	1
0	5072	38633.714624195077	0
0	5075	38675.613860811049	1
0	5076	38677.13795538797	0
0	5079	38681.545813849282	1
0	5080	38681.95833889285	0
0	5083	38777.182339017482	1
0	5084	38777.240117548319	0
0	5087	38794.218969811064	1
0	5088	38795.784295921057	0
0	5091	38797.962762578882	1
0	5092	38799.766219818798	0
0	5095	38809.759281188605	1
0	5096	38811.14207116529	0
0	5099	38813.154481160368	1
0	5100	38813.36798386011	0
0	5103	38839.423645103091	1
0	5104	38840.050687080122	0
0	5107	38866.149259159828	1
0	5108	38866.651946107607	0
0	5111	38948.83565148416	1
0	5112	38948.921564661063	0
0	5115	38989.877272125423	1
0	5116	38990.234062854162	0
0	5119	39074.67299124236	1
0	5120	39074.896091048605	0
0	5123	39131.218929668496	1
0	5124	39131.302423946309	0
0	5127	39132.837038361037	1
0	5128	39132.916264725477	0
0	5131	39215.224594467772	1
0	5132	39217.574596188354	0
0	5135	39242.430487686953	1
0	5136	39244.660415913987	0
0	5139	39365.428516467047	1
0	5140	39365.890796677298	0
0	5143	39432.142000939554	1
0	5144	39433.418441770835	0
0	5147	39447.456855820636	1
0	5148	39448.21336341353	0
0	5151	39493.007930272549	1
0	5152	39493.601571044257	0
0	5155	39507.365227404645	1
0	5156	39508.046675812274	0
0	5159	39514.495203537839	1
0	5160	39515.354284026405	0
0	5163	39519.293529938438	1
0	5164	39519.435279167006	0
0	5167	39562.737913656927	1
0	5168	39562.962892226062	0
0	5171	39597.387149663982	1
0	5172	39597.618393506977	0
0	5175	39603.674084235755	1
0	5176	39604.948901329039	0
0	5179	39635.754015986797	1
0	5180	39635.833263554776	0
0	5183	39704.461732583801	1
0	5184	39706.341301048547	0
0	5187	39763.890391467505	1
0	5191	39764.599508890908	0
0	5195	39767.229087474701	1
0	5196	39767.532288746421	0
0	5199	39770.066089569729	1
0	5200	39770.99861582096	0
0	5203	39790.727414888412	1
0	5204	39791.169121257132	0
0	5207	39819.690488879309	1
0	5208	39821.995807235177	0
0	5211	39845.792886190319	1
0	5212	39845.90724857509	0
0	5215	39860.252262477133	1
0	5216	39862.49014973765	0
0	5219	39868.546893000163	1
0	5220	39870.095950250792	0
0	5223	39871.593356117593	1
0	5224	39872.51059688374	0
0	5227	39877.14803772216	1
0	5228	39877.260740542734	0
0	5231	40003.006096325818	1
0	5232	40004.538688119586	0
0	5239	40129.968867611236	1
0	5240	40131.52162558762	0
0	5243	40131.778408324574	1
0	5244	40131.973403242982	0
0	5251	40160.347035633572	1
0	5252	40161.196614688517	0
0	5255	40179.574498329453	1
0	5256	40180.734655799968	0
0	5259	40183.267811976952	1
0	5260	40183.313693968568	0
0	5263	40202.871409768755	1
0	5264	40205.396478976739	0
0	5267	40221.194035014707	1
0	5268	40222.741044266091	0
0	5271	40242.496145384377	1
0	5272	40242.568066786757	0
0	5275	40359.800368473989	1
0	5276	40360.010603137699	0
0	5279	40462.374463554578	1
0	5280	40463.132593775735	0
0	5283	40478.908602004022	1
0	5284	40479.65917487578	0
0	5287	40482.068034580083	1
0	5288	40482.945344590997	0
0	5291	40540.44157209775	1
0	5295	40541.788944035473	0
0	5299	40545.398936438334	1
0	5300	40545.561374771028	0
0	5303	40565.231330463226	1
0	5304	40565.534140207064	0
0	5307	40574.724152198858	1
0	5308	40575.525078762172	0
0	5311	40593.113170259311	1
0	5312	40593.709763663843	0
0	5315	40608.628178071434	1
0	5316	40608.872311894588	0
0	5319	40616.674870869579	1
0	5320	40617.4680405041	0
0	5323	40631.990248147647	1
0	5324	40633.414020297103	0
0	5327	40633.810477152893	1
0	5328	40635.680780749375	0
0	5331	40667.196391501244	1
0	5332	40668.479823157	0
0	5335	40671.162739496103	1
0	5336	40672.85444690235	0
0	5339	40683.843433138114	1
0	5340	40684.037684410636	0
0	5343	40742.139449827912	1
0	5344	40742.442264768963	0
0	5347	40779.667909647673	1
0	5348	40781.648168931019	0
0	5355	40825.557907222473	1
0	5356	40825.577880465427	0
0	5359	40839.966661636726	1
0	5360	40842.598551645021	0
0	5363	40855.249516943359	1
0	5368	40857.217324060042	0
0	5371	40872.872425549333	1
0	5372	40873.690917850526	0
0	5375	40886.960666513189	1
0	5376	40888.179963468177	0
0	5379	40915.559244449869	1
0	5380	40916.075451978693	0
0	5383	40948.065690098671	1
0	5384	40949.113042299588	0
0	5387	40950.244171841844	1
0	5388	40951.666080670461	0
0	5391	40979.697719009836	1
0	5392	40979.931911806012	0
0	5395	41031.545500198864	1
0	5396	41032.807557740159	0
0	5399	41105.14467544396	1
0	5400	41106.509096666647	0
0	5411	41209.233800329191	1
0	5412	41209.559648268437	0
0	5415	41220.984336525649	1
0	5416	41221.521513147461	0
0	5419	41244.080194600062	1
0	5420	41244.083995489051	0
0	5423	41255.483765540216	1
0	5424	41255.57979005716	0
0	5427	41258.995866720056	1
0	5428	41261.712492771703	0
0	5431	41312.745496796656	1
0	5432	41313.048357703489	0
0	5435	41328.323108543075	1
0	5436	41330.274312405488	0
0	5439	41373.180042086945	1
0	5440	41373.439920432485	0
0	5443	41388.774700433349	1
0	5444	41390.079786761936	0
0	5447	41398.677901254957	1
0	5448	41400.458369588499	0
0	5451	41410.293825272188	1
0	5452	41411.020919760899	0
0	5455	41447.839093980707	1
0	5456	41448.587360912572	0
0	5459	41448.751333793638	1
0	5460	41449.978767140299	0
0	5463	41473.488485488998	1
0	5464	41473.521731573328	0
0	5467	41513.585538008681	1
0	5468	41515.102075702348	0
0	5471	41528.893312519436	1
0	5472	41530.323948392338	0
0	5475	41532.38206252244	1
0	5476	41532.85186767972	0
0	5479	41555.087692039229	1
0	5480	41555.638252671297	0
0	5483	41583.053294256198	1
0	5484	41584.524373507939	0
0	5487	41585.725872980923	1
0	5488	41585.920683448363	0
0	5491	41622.16854423796	1
0	5492	41623.557339001568	0
0	5495	41655.038040345443	1
0	5496	41656.246151302232	0
0	5499	41685.256220997137	1
0	5503	41686.206097504886	0
0	5507	41782.088467585357	1
0	5508	41782.602407932071	0
0	5511	41848.112973816328	1
0	5512	41848.435363126965	0
0	5515	41851.383929724975	1
0	5516	41852.578969297668	0
0	5519	41885.766270776898	1
0	5520	41885.830105630459	0
0	5523	41946.326183574722	1
0	5524	41946.329301288838	0
0	5527	42012.905049227925	1
0	5534	42014.125437043032	0
0	5539	42036.796213321392	1
0	5540	42039.063591554178	0
0	5543	42119.839215052025	1
0	5544	42121.123809617671	0
0	5547	42135.376918404145	1
0	5548	42135.650455272184	0
0	5551	42230.699837048122	1
0	5552	42231.448443215742	0
0	5555	42252.981549539094	1
0	5556	42253.110255095421	0
0	5559	42300.717617439383	1
0	5560	42300.817373763692	0
0	5563	42314.346244751233	1
0	5564	42314.595070263322	0
0	5567	42459.473868223071	1
0	5568	42459.914629777319	0
0	5571	42465.816503472411	1
0	5572	42466.176178242372	0
0	5575	42478.982128783673	1
0	5579	42481.389891219607	0
0	5583	42536.144825144675	1
0	5584	42536.341651035246	0
0	5587	42558.048485752343	1
0	5588	42558.831921886632	0
0	5591	42602.226871628648	1
0	5592	42602.440594138627	0
0	5595	42657.72954822478	1
0	5596	42658.067417745475	0
0	5599	42695.975091801275	1
0	5600	42696.199870703468	0
0	5603	42709.989688595085	1
0	5604	42710.138600163346	0
0	5607	42740.095420232048	1
0	5608	42740.225704415735	0
0	5611	42747.659610525025	1
0	5612	42748.002304320507	0
0	5615	42758.677655549952	1
0	5616	42759.671020152561	0
0	5619	42761.196456750952	1
0	5620	42762.148040734095	0
0	5623	42784.315388574973	1
0	5627	42787.310221975938	0
0	5631	42796.620450779806	1
0	5632	42796.66137212183	0
0	5635	42804.128049191897	1
0	5639	42804.73935868527	0
0	5643	42807.551170300017	1
0	5644	42808.138367931805	0
0	5647	42808.30900395404	1
0	5648	42808.381255193997	0
0	5651	42817.547167821459	1
0	5652	42819.308215919872	0
0	5655	42822.221743404761	1
0	5656	42823.122761313377	0
0	5659	42824.274909666258	1
0	5660	42824.830642268895	0
0	5663	42845.906481798847	1
0	5664	42846.81922996841	0
0	5667	42847.942158140284	1
0	5668	42848.366345659928	0
0	5671	42855.498401681103	1
0	5672	42855.929883634428	0
0	5675	42913.694254468828	1
0	5676	42914.818097200637	0
0	5679	42927.531027797028	1
0	5680	42927.834828387757	0
0	5683	42932.837448980683	1
0	5684	42933.087812216759	0
0	5687	42934.537965415419	1
0	5688	42934.913857570342	0
0	5691	42959.145735193704	1
0	5692	42959.77543035649	0
0	5695	43031.785834587009	1
0	5696	43034.13876702449	0
0	5699	43076.330256808452	1
0	5700	43076.708251244695	0
0	5703	43141.202405090204	1
0	5704	43141.721578628583	0
0	5707	43159.489180515524	1
0	5708	43160.474970323207	0
0	5711	43227.760780007726	1
0	5712	43228.986206486455	0
0	5715	43232.755485825308	1
0	5716	43234.853991725909	0
0	5719	43244.868073038736	1
0	5720	43245.667779766186	0
0	5723	43251.54723859979	1
0	5724	43252.140882587974	0
0	5727	43288.987785538284	1
0	5728	43289.585873367112	0
0	5731	43306.008829128261	1
0	5732	43307.543425925884	0
0	5735	43322.71195347146	1
0	5736	43323.333704020478	0
0	5739	43345.250124681567	1
0	5740	43345.860707480213	0
0	5743	43356.022995166269	1
0	5744	43356.132028671933	0
0	5747	43368.920661248431	1
0	5748	43369.988441735768	0
0	5751	43371.111037563699	1
0	5752	43374.107404342757	0
0	5755	43416.7373147927	1
0	5756	43416.878695171741	0
0	5759	43433.174687923756	1
0	5760	43433.308786430687	0
0	5763	43474.886367740558	1
0	5764	43475.453731107666	0
0	5767	43489.632728503157	1
0	5768	43489.773386845223	0
0	5771	43568.238775809572	1
0	5772	43570.639105937014	0
0	5775	43573.48343581059	1
0	5776	43573.658298120555	0
0	5779	43574.364834229065	1
0	5780	43575.294917136404	0
0	5783	43587.29788904555	1
0	5784	43589.338738643668	0
0	5787	43655.109902466823	1
0	5788	43656.56565230959	0
0	5795	43673.080558136229	1
0	5796	43673.78315100333	0
0	5799	43734.542697943429	1
0	5800	43737.33711264651	0
0	5803	43797.746461719828	1
0	5804	43798.435727692048	0
0	5807	43830.788344069052	1
0	5808	43831.269668428876	0
0	5811	43865.999875905285	1
0	5812	43867.850747607795	0
0	5815	43872.422341745178	1
0	5816	43873.080599520345	0
0	5819	44003.52233428801	1
0	5820	44003.592549619158	0
0	5823	44078.587073764202	1
0	5824	44079.695397060841	0
0	5827	44121.311004233282	1
0	5828	44122.162613337424	0
0	5831	44147.313236353274	1
0	5832	44148.988801860612	0
0	5835	44160.915638903248	1
0	5836	44163.776186151454	0
0	5839	44179.174219524853	1
0	5840	44181.675732127564	0
0	5843	44200.032492954452	1
0	5844	44200.762013809963	0
0	5847	44230.878652503058	1
0	5848	44230.970394619517	0
0	5851	44245.045514962379	1
0	5852	44245.261764594497	0
0	5855	44253.837419896011	1
0	5856	44253.974974707554	0
0	5859	44267.457163298506	1
0	5860	44269.340639373811	0
0	5863	44291.484423784328	1
0	5864	44292.814200753954	0
0	5867	44300.554267925795	1
0	5868	44300.844137911943	0
0	5875	44325.351433413611	1
0	5876	44326.557829281216	0
0	5879	44332.065096577678	1
0	5880	44332.902417536969	0
0	5883	44366.41169006175	1
0	5884	44367.188786272258	0
0	5887	44388.06145249249	1
0	5888	44391.002986890517	0
0	5891	44397.805956631878	1
0	5892	44400.778681292641	0
0	5895	44400.883334428787	1
0	5896	44402.827714553798	0
0	5899	44423.177404057944	1
0	5900	44424.156466083237	0
0	5903	44480.464054613061	1
0	5904	44481.679760367496	0
0	5907	44484.209880348221	1
0	5908	44486.029903297872	0
0	5911	44499.312663811849	1
0	5912	44499.511256786989	0
0	5915	44504.537740445044	1
0	5916	44504.545704955589	0
0	5919	44512.498839178291	1
0	5920	44513.464672590052	0
0	5927	44540.352508315039	1
0	5928	44541.169131427469	0
0	5931	44646.28975032979	1
0	5932	44646.370650857488	0
0	5935	44687.501328270404	1
0	5936	44687.565876533968	0
0	5939	44687.617362966024	1
0	5940	44688.006161993861	0
0	5943	44715.787921071728	1
0	5944	44716.366168401676	0
0	5947	44721.689541730609	1
0	5948	44724.611139010782	0
0	5951	44747.644013498337	1
0	5952	44749.609873280601	0
0	5955	44776.113603901618	1
0	5956	44776.122583200682	0
0	5959	44781.707092927337	1
0	5960	44781.717777747326	0
0	5963	44784.253235258532	1
0	5964	44785.983316596763	0
0	5967	44819.038714238711	1
0	5968	44819.127720195718	0
0	5971	44883.124532028175	1
0	5972	44885.099337128073	0
0	5975	44996.034955834105	1
0	5976	44996.594882041205	0
0	5979	45034.183255903685	1
0	5980	45034.762772330906	0
0	5983	45062.323499371927	1
0	5984	45063.208932946943	0
0	5987	45164.111420811173	1
0	5988	45164.406792632666	0
0	5991	45176.053250960803	1
0	5992	45178.016167293026	0
0	5995	45197.309333224003	1
0	5996	45198.932309979901	0
0	5999	45245.999033736099	1
0	6000	45246.952488429162	0
0	6003	45256.716587594159	1
0	6004	45257.366410955056	0
0	6007	45311.019917938007	1
0	6008	45311.780099887378	0
0	6011	45334.941872213057	1
0	6012	45335.086133658764	0
0	6015	45351.040534702219	1
0	6016	45352.851163135848	0
0	6019	45431.171283907461	1
0	6020	45433.800277877935	0
0	6023	45447.286796020052	1
0	6024	45448.649613138291	0
0	6027	45469.353498668355	1
0	6028	45471.616574332383	0
0	6031	45552.110338355798	1
0	6032	45552.507637884761	0
0	6035	45561.437100248917	1
0	6036	45562.113479106108	0
0	6039	45599.860989940963	1
0	6040	45600.141619905693	0
0	6043	45662.825542798186	1
0	6047	45664.768375156068	0
0	6051	45677.781757884434	1
0	6052	45678.324036374423	0
0	6055	45694.432709643869	1
0	6059	45695.371201981259	0
0	6063	45697.432224028019	1
0	6064	45697.50271920454	0
0	6067	45705.970229547727	1
0	6068	45706.477711829127	0
0	6071	45821.227718651669	1
0	6072	45821.7164544457	0
0	6075	45832.719760664213	1
0	6076	45833.424458336488	0
0	6079	45858.404745386347	1
0	6080	45859.173444319619	0
0	6083	45917.127297153535	1
0	6084	45917.337464876449	0
0	6087	45948.084918241044	1
0	6088	45950.3189188806	0
0	6095	45980.085994349195	1
0	6096	45982.888321473569	0
0	6099	45997.72730869951	1
0	6100	45998.075754295771	0
0	6103	46030.78016621897	1
0	6104	46031.026194881859	0
0	6107	46043.068981021408	1
0	6108	46043.178192898656	0
0	6111	46068.51698531659	1
[...]
1	5684	42933.087812216759	0.250363236076
1	5688	42934.913857570342	0.375892154923
1	5692	42959.77543035649	0.629695162786
1	5696	43034.13876702449	2.352932437481
1	5700	43076.708251244695	0.377994436243
1	5704	43141.721578628583	0.519173538379
1	5708	43160.474970323207	0.985789807683
1	5712	43228.986206486455	1.225426478729
1	5716	43234.853991725909	2.098505900601
1	5720	43245.667779766186	0.79970672745
1	5724	43252.140882587974	0.593643988184
1	5728	43289.585873367112	0.598087828828
1	5732	43307.543425925884	1.534596797623
1	5736	43323.333704020478	0.621750549018
1	5740	43345.860707480213	0.610582798646
1	5744	43356.132028671933	0.109033505664
1	5748	43369.988441735768	1.067780487337
1	5752	43374.107404342757	2.996366779058
1	5756	43416.878695171741	0.141380379041
1	5760	43433.308786430687	0.134098506931
1	5764	43475.453731107666	0.567363367108
1	5768	43489.773386845223	0.140658342066
1	5772	43570.639105937014	2.400330127442
1	5776	43573.658298120555	0.174862309965
1	5780	43575.294917136404	0.930082907339
1	5784	43589.338738643668	2.040849598118
1	5788	43656.56565230959	1.455749842767
1	5796	43673.78315100333	0.702592867101
1	5800	43737.33711264651	2.794414703081
1	5804	43798.435727692048	0.68926597222
1	5808	43831.269668428876	0.481324359824
1	5812	43867.850747607795	1.85087170251
1	5816	43873.080599520345	0.658257775167
1	5820	44003.592549619158	0.070215331148
1	5824	44079.695397060841	1.108323296639
1	5828	44122.162613337424	0.851609104142
1	5832	44148.988801860612	1.675565507338
1	5836	44163.776186151454	2.860547248206
1	5840	44181.675732127564	2.501512602711
1	5844	44200.762013809963	0.729520855511
1	5848	44230.970394619517	0.091742116459
1	5852	44245.261764594497	0.216249632118
1	5856	44253.974974707554	0.137554811543
1	5860	44269.340639373811	1.883476075305
1	5864	44292.814200753954	1.329776969626
1	5868	44300.844137911943	0.289869986148
1	5876	44326.557829281216	1.206395867605
1	5880	44332.902417536969	0.837320959291
1	5884	44367.188786272258	0.777096210508
1	5888	44391.002986890517	2.941534398027
1	5892	44400.778681292641	2.972724660763
1	5896	44402.827714553798	1.944380125011
1	5900	44424.156466083237	0.979062025293
1	5904	44481.679760367496	1.215705754435
1	5908	44486.029903297872	1.820022949651
1	5912	44499.511256786989	0.19859297514
1	5916	44504.545704955589	0.007964510545
1	5920	44513.464672590052	0.965833411761
1	5928	44541.169131427469	0.81662311243
1	5932	44646.370650857488	0.080900527698
1	5936	44687.565876533968	0.064548263564
1	5940	44688.006161993861	0.388799027837
1	5944	44716.366168401676	0.578247329948
1	5948	44724.611139010782	2.921597280173
1	5952	44749.609873280601	1.965859782264
1	5956	44776.122583200682	0.008979299064
1	5960	44781.717777747326	0.010684819989
1	5964	44785.983316596763	1.730081338231
1	5968	44819.127720195718	0.089005957007
1	5972	44885.099337128073	1.974805099898
1	5976	44996.594882041205	0.5599262071
1	5980	45034.762772330906	0.579516427221
1	5984	45063.208932946943	0.885433575016
1	5988	45164.406792632666	0.295371821493
1	5992	45178.016167293026	1.962916332223
1	5996	45198.932309979901	1.622976755898
1	6000	45246.952488429162	0.953454693063
1	6004	45257.366410955056	0.649823360897
1	6008	45311.780099887378	0.760181949371
1	6012	45335.086133658764	0.144261445707
1	6016	45352.851163135848	1.810628433629
1	6020	45433.800277877935	2.628993970474
1	6024	45448.649613138291	1.362817118239
1	6028	45471.616574332383	2.263075664028
1	6032	45552.507637884761	0.397299528963
1	6036	45562.113479106108	0.676378857191
1	6040	45600.141619905693	0.28062996473
1	6047	45664.768375156068	1.942832357882
1	6052	45678.324036374423	0.542278489989
1	6059	45695.371201981259	0.93849233739
1	6064	45697.50271920454	0.070495176521
1	6068	45706.477711829127	0.5074822814
1	6072	45821.7164544457	0.488735794031
1	6076	45833.424458336488	0.704697672275
1	6080	45859.173444319619	0.768698933272
1	6084	45917.337464876449	0.210167722914
1	6088	45950.3189188806	2.234000639556
1	6096	45982.888321473569	2.802327124374
1	6100	45998.075754295771	0.348445596261
1	6104	46031.026194881859	0.246028662889
1	6108	46043.178192898656	0.109211877248
1	6112	46069.342137979843	0.825152663253
1	6116	46132.45075584702	0.155853432135
1	6120	46177.146422681849	0.144047666597
1	6124	46264.043838782851	0.014192532076
1	6128	46334.371656923164	1.233804373494
1	6132	46478.837382414011	1.258589872396
1	6136	46493.285970839003	0.166306583838
1	6140	46508.134727222058	0.831256625572
1	6144	46575.018634628686	0.002549783275
1	6148	46678.171002553639	1.582690621082
1	6152	46678.621323482604	0.014102533935
1	6156	46726.403779824044	0.707408237128
1	6160	46760.642753621279	0.245403343388
1	6164	46795.748291388853	1.569357180016
1	6168	46804.413852780996	2.352256273969
1	6172	46811.678283457548	1.189952285607
1	6176	46833.775854218507	0.065361766107
1	6180	46842.532778154755	1.504395606516
1	6184	46885.862897206777	0.345733727192
1	6188	46891.486229218738	0.521689209325
1	6192	46932.302944653364	0.156684469023
1	6196	47010.013550319578	1.043472692206
1	6200	47048.366913001572	1.054246557542
1	6204	47057.958325585545	0.198200116096
1	6208	47077.700351762129	0.155142290693
1	6212	47096.037915732643	0.388342488329
1	6216	47102.493035565622	0.372467083031
1	6220	47122.744099433994	0.189472608435
1	6228	47175.159259770921	0.525325608232
1	6232	47200.130711532522	2.495015906004
1	6236	47253.694198161123	0.276305362045
1	6240	47272.583063939774	1.887481954573
1	6244	47275.710367582292	0.522429349344
1	6248	47386.587110283713	0.74501278622
1	6256	47413.380540093137	0.10178250294
1	6260	47469.182459181956	0.386132194179
1	6264	47471.422408401703	0.158204449787
1	6272	47561.853569494355	0.536320335468
1	6276	47565.570073939324	1.011442774259
1	6280	47676.482521678737	0.744171394025
1	6284	47681.310212221499	0.470149272997
1	6288	47726.881508543546	0.331337184837
1	6292	47739.379209944546	1.948304499655
1	6296	47746.247515980927	0.304107459834
1	6300	47749.260399647	0.966497093117
1	6304	47750.021891007306	0.610605684329
1	6308	47766.285661854034	0.290396525928
1	6312	47782.172329031856	0.504186403317
1	6316	47786.658301863629	1.574339515913
1	6320	47849.443945784743	1.309175914643
1	6324	47873.897062449489	0.567287537832
1	6328	47890.304488189926	0.006025647601
1	6332	47899.233923251244	0.442405839205
1	6336	47909.768571800356	0.951191939489
1	6340	47936.440658455788	0.400890996748
1	6344	48018.21215988422	0.03169356698
1	6348	48023.126473410438	1.195240627918
1	6352	48066.383249766135	0.064762743681
1	6356	48178.377581556654	0.31286331145
1	6360	48206.686839373769	0.297883566572
1	6368	48288.936710371656	1.651708946852
1	6372	48302.632782469083	0.349967198921
1	6376	48382.805009922221	0.092341959642
1	6380	48391.817422525131	0.785528694651
1	6384	48426.616258085748	1.973591772593
1	6388	48433.958338690098	0.669277339692
1	6392	48440.990425861066	0.075224629349
1	6400	48462.66290067186	1.933482611701
1	6408	48464.898503351117	2.192712653836
1	6412	48493.759465762321	0.203812160003
1	6416	48574.945702329749	2.705283070483
1	6420	48588.863549354212	0.880316772733
1	6424	48623.709075763867	0.283681224648
1	6428	48639.926036667414	2.284794758348
1	6432	48675.088330072849	0.808682856616
1	6436	48724.592285040585	0.590802204297
1	6440	48752.018592089614	0.822070936736
1	6444	48790.782496718367	2.549359472059
1	6448	48811.997904308342	0.648647439061
1	6452	48904.26827454655	0.327103510607
1	6456	48922.779650526654	0.597530717806
1	6460	48936.133721512426	0.938616018377
1	6464	48965.445063226307	2.746741581661
1	6468	49032.194745597186	1.147131668314
1	6472	49063.388630042986	0.494416625224
1	6476	49107.239250154859	0.259037261015
1	6480	49121.034388282118	0.0480100644
1	6484	49134.268377056315	0.013863168371
1	6488	49167.64959512031	0.295322151363
1	6492	49197.052659484515	0.539094723234
1	6496	49215.39317779244	0.566606739933
1	6503	49227.829340491818	2.788423693238
1	6508	49290.367729062766	0.420114045363
1	6512	49298.692417534688	0.77995123785
1	6516	49303.003378494184	1.512966098093
1	6520	49305.466390759835	1.429766649409
1	6524	49311.392933216254	0.192052322331
1	6528	49325.232808365246	2.372920484387
1	6532	49329.343074639629	0.418478671213
1	6536	49358.752103796951	1.476968110181
1	6540	49372.907770784827	0.156183422271
1	6544	49387.331929201165	0.832104946951
1	6548	49428.783494690624	1.261498866324
1	6552	49466.573757962186	0.1880622201
1	6556	49490.04129033798	1.201667548188
1	6560	49523.39581366107	0.554543062412
1	6564	49544.071578449977	1.16634732621
1	6572	49548.977099916986	1.38308951819
1	6576	49553.163128549945	0.033516243463
1	6580	49570.930962067563	1.178825415652
1	6584	49572.408259262867	0.657968493726
1	6588	49573.978047546432	0.257861221984
1	6592	49583.667078858132	0.737571057415
1	6596	49590.487694172113	0.552775190248
1	6600	49603.553796731539	0.771136885319
1	6604	49684.069481506464	0.465091110778
1	6608	49686.554158138589	0.178142180247
1	6612	49694.092367178656	0.438982454041
1	6616	49722.326087957813	1.016325484813
1	6620	49779.998409251634	0.059383627693
1	6624	49817.800816945074	0.269448501168
1	6628	49867.25039430749	0.998712549732
1	6632	49871.553799519653	0.170563190675
1	6636	49877.812025767715	1.228663801907
1	6640	49889.638173271345	0.492030737863
1	6644	49918.017202145238	0.950852913065
1	6648	49956.740803947054	0.698474741903
1	6652	49960.774815874217	1.045013024538
1	6656	49992.569369469713	0.181081428427
2	7	50.833046791491	1
2	8	56.705771652472	0
2	31	310.527105741351	1
2	32	317.476220028688	0
2	171	1519.215084082452	1
2	172	1522.665311169738	0
2	259	2123.106698839446	1
2	260	2126.274157761899	0
2	323	2507.277506539987	1
2	324	2511.77481720834	0
2	463	3627.834990497626	1
2	464	3630.970804917194	0
2	699	5377.485433177979	1
2	700	5380.833280782237	0
2	875	6648.167140039825	1
2	876	6654.090143105357	0
2	1015	7810.642133339425	1
2	1016	7814.073828866563	0
2	1051	8013.697322580653	1
2	1052	8017.190495315999	0
2	1211	9396.725077724674	1
2	1216	9400.144734323405	0
2	1267	9735.251616820856	1
2	1275	9738.758841254066	0
2	1303	9984.234309741331	1
2	1304	9988.238263568594	0
2	1371	10522.635918012634	1
2	1372	10527.111478127878	0
2	1691	13026.063220187144	1
2	1692	13029.367178366254	0
2	1743	13404.334472524091	1
2	1744	13407.586834226449	0
2	1839	14218.083461610247	1
2	1840	14221.45685332511	0
2	1895	14532.341176884899	1
2	1896	14535.395197904503	0
2	2011	15201.930498450729	1
2	2016	15205.69234195986	0
2	2027	15329.004113792989	1
2	2032	15332.645481714698	0
2	2195	16623.407708119396	1
2	2196	16627.049783430051	0
2	2387	18439.47686808525	1
2	2388	18443.540709630509	0
2	2647	20068.084374748905	1
2	2648	20072.512627762794	0
2	2807	21116.53625333064	1
2	2812	21120.028399142257	0
2	2875	21487.58632011272	1
2	2876	21492.239817574883	0
2	2887	21503.185441720441	1
2	2888	21506.62785659745	0
2	2915	21780.73744664078	1
2	2919	21784.415994245606	0
2	2931	21888.722901992311	1
2	2932	21893.824505017426	0
2	2935	21951.621990197986	1
2	2936	21956.559361205685	0
2	3059	22909.993768668781	1
2	3060	22914.57441293519	0
2	3203	24061.594359298729	1
2	3204	24064.799192119566	0
2	3415	25564.467908366978	1
2	3419	25567.65479881952	0
2	3423	25577.745791366854	1
2	3424	25582.084207991733	0
2	3447	25727.38148935955	1
2	3448	25731.40681329912	0
2	3479	26003.883859273284	1
2	3480	26008.645749808832	0
2	3495	26082.112534095683	1
2	3496	26087.291255979506	0
2	3555	26581.492292975367	1
2	3556	26584.512190584772	0
2	3627	27362.442157338059	1
2	3628	27367.042855199747	0
2	3655	27610.68229250464	1
2	3660	27619.055896949738	0
2	3731	28067.996033201945	1
2	3732	28072.036881233233	0
2	3735	28078.535671648212	1
2	3736	28083.321645020741	0
2	4047	30699.764394949706	1
2	4048	30702.824580503455	0
2	4155	31536.747281163232	1
2	4156	31542.477435664767	0
2	4179	31643.740613967244	1
2	4180	31647.469860055334	0
2	4243	31937.641690705854	1
2	4244	31941.344670358035	0
2	4255	32037.842832527746	1
2	4256	32040.948606743818	0
2	4259	32067.047008837125	1
2	4264	32070.651091013928	0
2	4311	32397.363198991898	1
2	4312	32401.29602864299	0
2	4383	33118.363173760742	1
2	4384	33123.468870009089	0
2	4387	33139.751868134589	1
2	4388	33143.911292514993	0
2	4511	34251.882212607435	1
2	4512	34255.570744509526	0
2	4727	35759.229644324162	1
2	4728	35762.979590273711	0
2	4923	37260.416732478064	1
2	4924	37264.1482502194	0
2	5023	38443.035169160613	1
2	5024	38446.259751699332	0
2	5235	40061.899795012528	1
2	5236	40066.147908000171	0
2	5247	40141.265521499843	1
2	5248	40145.216221485997	0
2	5351	40794.97605158043	1
2	5352	40798.996528072112	0
2	5403	41136.934023740241	1
2	5404	41141.302239751663	0
2	5407	41170.357465834232	1
2	5408	41174.161435407829	0
2	5791	43658.125068178817	1
2	5792	43662.475723762343	0
2	5871	44304.797831075482	1
2	5872	44308.09119202445	0
2	5923	44513.936955165756	1
2	5924	44518.478217538278	0
2	6091	45966.487460224776	1
2	6092	45969.839550958164	0
2	6223	47129.458399870271	1
2	6224	47132.554651967597	0
2	6251	47402.543177420366	1
2	6252	47406.240990543993	0
2	6267	47522.382152084463	1
2	6268	47526.427189076181	0
3	8	56.705771652472	5.872724860981
3	32	317.476220028688	6.949114287337
3	172	1522.665311169738	3.450227087286
3	260	2126.274157761899	3.167458922453
3	324	2511.77481720834	4.497310668353
3	464	3630.970804917194	3.135814419568
3	700	5380.833280782237	3.347847604258
3	876	6654.090143105357	5.923003065532
3	1016	7814.073828866563	3.431695527138
3	1052	8017.190495315999	3.493172735346
3	1216	9400.144734323405	3.419656598731
3	1275	9738.758841254066	3.50722443321
3	1304	9988.238263568594	4.003953827263
3	1372	10527.111478127878	4.475560115244
3	1692	13029.367178366254	3.30395817911
3	1744	13407.586834226449	3.252361702358
3	1840	14221.45685332511	3.373391714863
3	1896	14535.395197904503	3.054021019604
3	2016	15205.69234195986	3.761843509131
3	2032	15332.645481714698	3.641367921709
3	2196	16627.049783430051	3.642075310655
3	2388	18443.540709630509	4.063841545259
3	2648	20072.512627762794	4.428253013889
3	2812	21120.028399142257	3.492145811617
3	2876	21492.239817574883	4.653497462163
3	2888	21506.62785659745	3.442414877009
3	2919	21784.415994245606	3.678547604826
3	2932	21893.824505017426	5.101603025115
3	2936	21956.559361205685	4.937371007699
3	3060	22914.57441293519	4.580644266409
3	3204	24064.799192119566	3.204832820837
3	3419	25567.65479881952	3.186890452542
3	3424	25582.084207991733	4.338416624879
3	3448	25731.40681329912	4.02532393957
3	3480	26008.645749808832	4.761890535548
3	3496	26087.291255979506	5.178721883823
3	3556	26584.512190584772	3.019897609405
3	3628	27367.042855199747	4.600697861688
3	3660	27619.055896949738	8.373604445098
3	3732	28072.036881233233	4.040848031288
3	3736	28083.321645020741	4.785973372529
3	4048	30702.824580503455	3.060185553749
3	4156	31542.477435664767	5.730154501535
3	4180	31647.469860055334	3.72924608809
3	4244	31941.344670358035	3.702979652181
3	4256	32040.948606743818	3.105774216072
3	4264	32070.651091013928	3.604082176803
3	4312	32401.29602864299	3.932829651092
3	4384	33123.468870009089	5.105696248347
3	4388	33143.911292514993	4.159424380404
3	4512	34255.570744509526	3.688531902091
3	4728	35762.979590273711	3.749945949549
3	4924	37264.1482502194	3.731517741336
3	5024	38446.259751699332	3.224582538719
3	5236	40066.147908000171	4.248112987643
3	5248	40145.216221485997	3.950699986154
3	5352	40798.996528072112	4.020476491682
3	5404	41141.302239751663	4.368216011422
3	5408	41174.161435407829	3.803969573597
3	5792	43662.475723762343	4.350655583526
3	5872	44308.09119202445	3.293360948968
3	5924	44518.478217538278	4.541262372522
3	6092	45969.839550958164	3.352090733388
3	6224	47132.554651967597	3.096252097326
3	6252	47406.240990543993	3.697813123627
3	6268	47526.427189076181	4.045036991718
4	130	1002.396146650235	1
4	131	1002.936237700024	0
4	534	4046.213243558971	1
4	535	4046.364027054418	0
4	778	5892.045148296123	1
4	779	5892.897712136499	0
4	794	5964.418071124164	1
4	795	5965.378169857471	0
4	1094	8214.043210775014	1
4	1096	8214.992407236379	0
4	1330	10236.38739126541	1
4	1331	10236.459985770163	0
4	1434	10960.887482918906	1
4	1435	10961.349652040532	0
4	1634	12497.195844546622	1
4	1635	12497.690153520977	0
4	1766	13547.828840868058	1
4	1767	13547.940209675433	0
4	1866	14381.907878216797	1
4	1868	14382.244356849436	0
4	2094	15717.842412637609	1
4	2096	15717.879563983609	0
4	2110	15822.528872334048	1
4	2112	15824.836756915772	0
4	2266	17340.454883522493	1
4	2267	17340.769879602786	0
4	2310	17901.413693280697	1
4	2311	17901.500937062966	0
4	2470	19076.894596098233	1
4	2476	19078.719577817816	0
4	2710	20433.280901583324	1
4	2711	20433.714953392543	0
4	3006	22393.487298183076	1
4	3008	22394.782430727634	0
4	3186	23961.292824196583	1
4	3187	23962.00850634109	0
4	3246	24403.828870942322	1
4	3247	24403.915361140564	0
4	3310	24646.889291993978	1
4	3312	24647.502747011203	0
4	3910	29564.256972536907	1
4	3911	29564.485735656496	0
4	3982	30166.614369459564	1
4	3983	30167.090547138027	0
4	4194	31722.074549245213	1
4	4195	31722.979919653109	0
4	4322	32501.413896705016	1
4	4323	32502.09131189678	0
4	4766	36158.385318775685	1
4	4768	36158.703733450517	0
4	5042	38508.079480262616	1
4	5043	38508.429722072478	0
4	5046	38508.737301683308	1
4	5048	38508.783270038984	0
4	5190	39764.159533087525	1
4	5192	39765.000146513228	0
4	5294	40541.655310767568	1
4	5296	40542.144101835419	0
4	5366	40855.916076503922	1
4	5367	40856.32505636437	0
4	5502	41686.158704863192	1
4	5504	41687.069008363351	0
4	5530	42013.793791796826	1
4	5536	42015.284987437943	0
4	5578	42479.561371939453	1
4	5580	42481.707196982801	0
4	5626	42786.990521043019	1
4	5628	42787.382288199635	0
4	5638	42804.389886081103	1
4	5640	42805.013942019473	0
4	6046	45663.829185571989	1
4	6048	45664.892081324162	0
4	6058	45694.474239022052	1
4	6060	45695.624560168462	0
4	6366	48287.365421174888	1
4	6367	48288.261637242319	0
4	6398	48461.481355686757	1
4	6399	48461.88001568089	0
4	6406	48462.930681030738	1
4	6407	48464.59441549397	0
4	6502	49227.708043545464	1
4	6504	49228.056399681086	0
4	6570	49547.610393997569	1
4	6571	49547.902614401132	0
5	131	1002.936237700024	0.540091049789
5	535	4046.364027054418	0.150783495447
5	779	5892.897712136499	0.852563840376
5	795	5965.378169857471	0.960098733307
5	1096	8214.992407236379	0.949196461365
5	1331	10236.459985770163	0.072594504753
5	1435	10961.349652040532	0.462169121626
5	1635	12497.690153520977	0.494308974355
5	1767	13547.940209675433	0.111368807375
5	1868	14382.244356849436	0.336478632639
5	2096	15717.879563983609	0.037151346
5	2112	15824.836756915772	2.307884581724
5	2267	17340.769879602786	0.314996080293
5	2311	17901.500937062966	0.087243782269
5	2476	19078.719577817816	1.824981719583
5	2711	20433.714953392543	0.434051809219
5	3008	22394.782430727634	1.295132544558
5	3187	23962.00850634109	0.715682144507
5	3247	24403.915361140564	0.086490198242
5	3312	24647.502747011203	0.613455017225
5	3911	29564.485735656496	0.228763119589
5	3983	30167.090547138027	0.476177678463
5	4195	31722.979919653109	0.905370407896
5	4323	32502.09131189678	0.677415191764
5	4768	36158.703733450517	0.318414674832
5	5043	38508.429722072478	0.350241809862
5	5048	38508.783270038984	0.045968355676
5	5192	39765.000146513228	0.840613425703
5	5296	40542.144101835419	0.488791067851
5	5367	40856.32505636437	0.408979860448
5	5504	41687.069008363351	0.910303500159
5	5536	42015.284987437943	1.491195641117
5	5580	42481.707196982801	2.145825043348
5	5628	42787.382288199635	0.391767156616
5	5640	42805.013942019473	0.62405593837
5	6048	45664.892081324162	1.062895752173
5	6060	45695.624560168462	1.15032114641
5	6367	48288.261637242319	0.896216067431
5	6399	48461.88001568089	0.398659994133
5	6407	48464.59441549397	1.663734463232
5	6504	49228.056399681086	0.348356135622
5	6571	49547.902614401132	0.292220403563
6	2473	19077.239393604489	1
6	2475	19077.613752328617	0
6	5533	42013.830040853165	1
6	5535	42014.273510308161	0
7	2475	19077.613752328617	0.374358724128
7	5535	42014.273510308161	0.443469454996
8	2918	21783.335956474185	1
8	2920	21786.718721684329	0
9	2920	21786.718721684329	3.382765210144

